<?xml version="1.0" encoding="UTF-8"?>

<!-- generated on 07/21/20 11:56:00 by Eclipse SUMO netedit Version 1.6.0
<configuration xmlns:xsi="http://www.w3.org/2001/XMLSchema-instance" xsi:noNamespaceSchemaLocation="http://sumo.dlr.de/xsd/netconvertConfiguration.xsd">

    <input>
        <sumo-net-file value="D:\data\Intellectual-Traffic-Light-System\project\ITLS.deprecated.net.xml"/>
    </input>

    <output>
        <output-file value="D:\data\Intellectual-Traffic-Light-System\project\ITLS.deprecated.net.xml"/>
    </output>

    <processing>
        <geometry.min-radius.fix.railways value="false"/>
        <geometry.max-grade.fix value="false"/>
        <offset.disable-normalization value="true"/>
        <lefthand value="false"/>
    </processing>

    <junctions>
        <no-internal-links value="false"/>
        <no-turnarounds value="true"/>
        <junctions.corner-detail value="5"/>
        <junctions.limit-turn-speed value="5.5"/>
        <rectangular-lane-cut value="false"/>
    </junctions>

    <pedestrian>
        <walkingareas value="false"/>
    </pedestrian>

    <report>
        <aggregate-warnings value="5"/>
    </report>

</configuration>
-->

<net version="1.6" junctionCornerDetail="5" limitTurnSpeed="5.50" xmlns:xsi="http://www.w3.org/2001/XMLSchema-instance" xsi:noNamespaceSchemaLocation="http://sumo.dlr.de/xsd/net_file.xsd">

    <location netOffset="0.00,0.00" convBoundary="-281.08,-271.80,308.61,282.48" origBoundary="-10000000000.00,-10000000000.00,10000000000.00,10000000000.00" projParameter="!"/>

    <edge id=":ITLS_0" function="internal">
        <lane id=":ITLS_0_0" index="0" allow="motorcycle moped bicycle" speed="10.25" length="21.14" width="3.75" shape="38.85,33.93 33.07,27.59 27.66,24.14 22.63,23.59 21.66,24.08"/>
    </edge>
    <edge id=":ITLS_1" function="internal">
        <lane id=":ITLS_1_0" index="0" allow="motorcycle moped bicycle" speed="11.11" length="74.07" width="4.00" shape="38.85,33.93 26.08,14.97 18.61,0.02 12.11,-14.04 2.28,-30.30"/>
    </edge>
    <edge id=":ITLS_2" function="internal">
        <lane id=":ITLS_2_0" index="0" allow="motorcycle moped bicycle" speed="16.66" length="38.38" width="3.50" shape="40.45,32.73 36.47,18.88 33.44,-4.89"/>
    </edge>
    <edge id=":ITLS_3" function="internal">
        <lane id=":ITLS_3_0" index="0" disallow="pedestrian motorcycle moped rail_fast" speed="11.85" length="14.54" width="3.75" shape="43.23,30.65 35.87,22.84 32.54,20.99"/>
    </edge>
    <edge id=":ITLS_4" function="internal">
        <lane id=":ITLS_4_0" index="0" disallow="pedestrian motorcycle moped bicycle rail_fast" speed="11.11" length="73.80" width="3.75" shape="43.23,30.65 30.40,11.82 22.74,-2.94 16.05,-16.82 6.11,-33.01"/>
        <lane id=":ITLS_4_1" index="1" disallow="pedestrian motorcycle moped bicycle rail_fast" speed="11.11" length="73.80" width="3.75" shape="45.87,28.68 33.11,9.83 25.60,-5.00 19.05,-18.95 9.18,-35.16"/>
    </edge>
    <edge id=":ITLS_6" function="internal">
        <lane id=":ITLS_6_0" index="0" disallow="pedestrian motorcycle moped bicycle rail_fast" speed="15.38" length="13.59" width="3.75" shape="48.51,26.70 44.73,15.76 44.44,13.77"/>
    </edge>
    <edge id=":ITLS_34" function="internal">
        <lane id=":ITLS_34_0" index="0" allow="motorcycle moped bicycle" speed="10.25" length="4.12" width="3.75" shape="21.66,24.08 17.99,25.93"/>
    </edge>
    <edge id=":ITLS_35" function="internal">
        <lane id=":ITLS_35_0" index="0" allow="motorcycle moped bicycle" speed="16.66" length="36.13" width="3.50" shape="33.44,-4.89 33.42,-5.04 32.49,-28.45 34.85,-40.77"/>
    </edge>
    <edge id=":ITLS_36" function="internal">
        <lane id=":ITLS_36_0" index="0" disallow="pedestrian motorcycle moped rail_fast" speed="11.85" length="19.02" width="3.75" shape="32.54,20.99 28.71,18.87 21.77,18.74 15.03,22.45"/>
    </edge>
    <edge id=":ITLS_37" function="internal">
        <lane id=":ITLS_37_0" index="0" disallow="pedestrian motorcycle moped bicycle rail_fast" speed="15.38" length="42.43" width="3.75" shape="44.44,13.77 42.12,-1.75 41.63,-18.75 44.17,-28.14"/>
    </edge>
    <edge id=":ITLS_7" function="internal">
        <lane id=":ITLS_7_0" index="0" allow="motorcycle moped bicycle" speed="11.53" length="26.55" width="4.00" shape="58.78,-8.31 54.04,-3.11 52.54,3.12 54.27,10.38 57.17,15.22"/>
    </edge>
    <edge id=":ITLS_8" function="internal">
        <lane id=":ITLS_8_0" index="0" allow="motorcycle moped bicycle" speed="22.22" length="53.26" width="3.75" shape="58.78,-8.31 17.99,25.93"/>
    </edge>
    <edge id=":ITLS_9" function="internal">
        <lane id=":ITLS_9_0" index="0" allow="motorcycle moped bicycle" speed="16.11" length="29.17" width="4.00" shape="58.78,-8.31 48.17,-8.88 30.60,-14.81"/>
    </edge>
    <edge id=":ITLS_10" function="internal">
        <lane id=":ITLS_10_0" index="0" disallow="pedestrian motorcycle moped bicycle rail_fast" speed="12.72" length="11.34" width="3.75" shape="56.29,-11.69 50.04,-5.05 49.43,-2.91"/>
    </edge>
    <edge id=":ITLS_11" function="internal">
        <lane id=":ITLS_11_0" index="0" disallow="pedestrian motorcycle moped bicycle rail_fast" speed="22.22" length="53.96" width="3.75" shape="54.51,-14.10 42.09,-4.11 34.34,3.63 26.80,11.64 15.03,22.45"/>
        <lane id=":ITLS_11_1" index="1" disallow="pedestrian motorcycle moped bicycle rail_fast" speed="22.22" length="53.96" width="3.25" shape="54.51,-14.10 12.76,19.78"/>
        <lane id=":ITLS_11_2" index="2" disallow="pedestrian motorcycle moped bicycle rail_fast" speed="22.22" length="53.96" width="3.25" shape="52.73,-16.52 10.66,17.30"/>
        <lane id=":ITLS_11_3" index="3" disallow="pedestrian motorcycle moped bicycle rail_fast" speed="22.22" length="53.96" width="3.25" shape="50.95,-18.93 8.55,14.83"/>
    </edge>
    <edge id=":ITLS_15" function="internal">
        <lane id=":ITLS_15_0" index="0" disallow="pedestrian motorcycle moped bicycle rail_fast" speed="14.65" length="18.69" width="3.75" shape="49.17,-21.35 37.88,-15.73 31.80,-15.77"/>
    </edge>
    <edge id=":ITLS_16" function="internal">
        <lane id=":ITLS_16_0" index="0" disallow="pedestrian motorcycle moped bicycle rail_fast" speed="13.86" length="12.64" width="3.75" shape="47.39,-23.76 37.55,-18.98 35.85,-19.04"/>
    </edge>
    <edge id=":ITLS_38" function="internal">
        <lane id=":ITLS_38_0" index="0" allow="motorcycle moped bicycle" speed="11.53" length="4.02" width="4.00" shape="57.17,15.22 59.24,18.67"/>
    </edge>
    <edge id=":ITLS_39" function="internal">
        <lane id=":ITLS_39_0" index="0" allow="motorcycle moped bicycle" speed="16.11" length="32.41" width="4.00" shape="30.60,-14.81 30.22,-14.94 12.43,-23.18 2.28,-30.30"/>
    </edge>
    <edge id=":ITLS_40" function="internal">
        <lane id=":ITLS_40_0" index="0" disallow="pedestrian motorcycle moped bicycle rail_fast" speed="12.72" length="26.39" width="3.75" shape="49.43,-2.91 47.83,2.70 49.64,11.54 55.48,21.48"/>
    </edge>
    <edge id=":ITLS_41" function="internal">
        <lane id=":ITLS_41_0" index="0" disallow="pedestrian motorcycle moped bicycle rail_fast" speed="14.65" length="32.26" width="3.75" shape="31.80,-15.77 26.94,-15.81 16.35,-21.56 6.11,-33.01"/>
    </edge>
    <edge id=":ITLS_42" function="internal">
        <lane id=":ITLS_42_0" index="0" disallow="pedestrian motorcycle moped bicycle rail_fast" speed="13.86" length="32.83" width="3.75" shape="35.85,-19.04 27.90,-19.29 18.45,-24.68 9.18,-35.16"/>
    </edge>
    <edge id=":ITLS_17" function="internal">
        <lane id=":ITLS_17_0" index="0" allow="motorcycle moped bicycle" speed="8.08" length="11.00" width="3.50" shape="22.06,-44.24 25.10,-40.83 28.25,-39.12 31.11,-39.10"/>
    </edge>
    <edge id=":ITLS_18" function="internal">
        <lane id=":ITLS_18_0" index="0" allow="motorcycle moped bicycle" speed="11.11" length="73.07" width="4.00" shape="22.06,-44.24 59.24,18.67"/>
    </edge>
    <edge id=":ITLS_19" function="internal">
        <lane id=":ITLS_19_0" index="0" allow="motorcycle moped bicycle" speed="16.66" length="29.10" width="3.75" shape="20.43,-43.08 23.07,-29.97 23.33,-14.25"/>
    </edge>
    <edge id=":ITLS_20" function="internal">
        <lane id=":ITLS_20_0" index="0" disallow="pedestrian motorcycle moped bicycle rail_fast" speed="9.98" length="10.01" width="3.75" shape="17.71,-41.17 22.17,-36.34 25.28,-34.86"/>
    </edge>
    <edge id=":ITLS_21" function="internal">
        <lane id=":ITLS_21_0" index="0" disallow="pedestrian motorcycle moped bicycle rail_fast" speed="11.11" length="73.24" width="3.75" shape="17.71,-41.17 55.48,21.48"/>
        <lane id=":ITLS_21_1" index="1" disallow="pedestrian motorcycle moped bicycle rail_fast" speed="11.11" length="73.24" width="3.75" shape="15.26,-39.44 52.48,23.73"/>
    </edge>
    <edge id=":ITLS_23" function="internal">
        <lane id=":ITLS_23_0" index="0" disallow="pedestrian motorcycle moped bicycle rail_fast" speed="15.72" length="8.08" width="3.25" shape="12.81,-37.72 14.62,-29.84"/>
    </edge>
    <edge id=":ITLS_43" function="internal">
        <lane id=":ITLS_43_0" index="0" allow="motorcycle moped bicycle" speed="8.08" length="4.13" width="3.50" shape="31.11,-39.10 31.50,-39.10 34.85,-40.77"/>
    </edge>
    <edge id=":ITLS_44" function="internal">
        <lane id=":ITLS_44_0" index="0" allow="motorcycle moped bicycle" speed="16.66" length="40.81" width="3.75" shape="23.33,-14.25 23.44,-7.81 21.69,13.96 17.99,25.93"/>
    </edge>
    <edge id=":ITLS_45" function="internal">
        <lane id=":ITLS_45_0" index="0" disallow="pedestrian motorcycle moped bicycle rail_fast" speed="9.98" length="13.10" width="3.75" shape="25.28,-34.86 26.96,-34.07 32.06,-34.35 37.49,-37.20"/>
    </edge>
    <edge id=":ITLS_46" function="internal">
        <lane id=":ITLS_46_0" index="0" disallow="pedestrian motorcycle moped bicycle rail_fast" speed="15.72" length="45.77" width="3.25" shape="14.62,-29.84 15.22,-27.22 15.05,-10.80 12.69,5.30 8.55,14.83"/>
    </edge>
    <edge id=":ITLS_24" function="internal">
        <lane id=":ITLS_24_0" index="0" allow="motorcycle moped bicycle" speed="12.45" length="29.17" width="4.00" shape="-5.26,-1.43 1.76,-8.78 5.35,-16.04 5.53,-23.21 3.97,-26.60"/>
    </edge>
    <edge id=":ITLS_25" function="internal">
        <lane id=":ITLS_25_0" index="0" allow="motorcycle moped bicycle" speed="22.22" length="56.18" width="3.50" shape="-5.26,-1.43 34.85,-40.77"/>
    </edge>
    <edge id=":ITLS_26" function="internal">
        <lane id=":ITLS_26_0" index="0" allow="motorcycle moped bicycle" speed="16.66" length="27.19" width="4.00" shape="-5.26,-1.43 6.59,-1.43 21.42,2.51"/>
    </edge>
    <edge id=":ITLS_27" function="internal">
        <lane id=":ITLS_27_0" index="0" disallow="pedestrian motorcycle moped bicycle rail_fast" speed="13.57" length="18.03" width="3.75" shape="-2.54,1.77 5.78,-7.00 8.37,-12.35"/>
    </edge>
    <edge id=":ITLS_28" function="internal">
        <lane id=":ITLS_28_0" index="0" disallow="pedestrian motorcycle moped bicycle rail_fast" speed="22.22" length="55.39" width="3.75" shape="-2.54,1.77 37.49,-37.20"/>
        <lane id=":ITLS_28_1" index="1" disallow="pedestrian motorcycle moped bicycle rail_fast" speed="22.22" length="55.39" width="3.75" shape="-2.54,1.77 39.72,-34.18"/>
        <lane id=":ITLS_28_2" index="2" disallow="pedestrian motorcycle moped bicycle rail_fast" speed="22.22" length="55.39" width="3.75" shape="-0.60,4.05 41.94,-31.16"/>
        <lane id=":ITLS_28_3" index="3" disallow="pedestrian motorcycle moped bicycle rail_fast" speed="22.22" length="55.39" width="3.75" shape="1.34,6.34 44.17,-28.14"/>
    </edge>
    <edge id=":ITLS_32" function="internal">
        <lane id=":ITLS_32_0" index="0" disallow="pedestrian motorcycle moped bicycle rail_fast" speed="15.89" length="22.06" width="3.75" shape="3.29,8.62 16.32,1.15 23.35,0.97"/>
    </edge>
    <edge id=":ITLS_33" function="internal">
        <lane id=":ITLS_33_0" index="0" disallow="pedestrian motorcycle moped bicycle rail_fast" speed="15.17" length="15.54" width="3.75" shape="5.23,10.91 16.82,4.39 19.06,4.39"/>
    </edge>
    <edge id=":ITLS_47" function="internal">
        <lane id=":ITLS_47_0" index="0" allow="motorcycle moped bicycle" speed="12.45" length="4.07" width="4.00" shape="3.97,-26.60 2.28,-30.30"/>
    </edge>
    <edge id=":ITLS_48" function="internal">
        <lane id=":ITLS_48_0" index="0" allow="motorcycle moped bicycle" speed="16.66" length="41.33" width="4.00" shape="21.42,2.51 27.23,4.05 47.75,11.81 59.24,18.67"/>
    </edge>
    <edge id=":ITLS_49" function="internal">
        <lane id=":ITLS_49_0" index="0" disallow="pedestrian motorcycle moped bicycle rail_fast" speed="13.57" length="21.91" width="3.75" shape="8.37,-12.35 10.00,-15.72 10.11,-24.39 6.11,-33.01"/>
    </edge>
    <edge id=":ITLS_50" function="internal">
        <lane id=":ITLS_50_0" index="0" disallow="pedestrian motorcycle moped bicycle rail_fast" speed="15.89" length="39.79" width="3.75" shape="23.35,0.97 29.36,0.81 42.41,7.58 55.48,21.48"/>
    </edge>
    <edge id=":ITLS_51" function="internal">
        <lane id=":ITLS_51_0" index="0" disallow="pedestrian motorcycle moped bicycle rail_fast" speed="15.17" length="40.68" width="3.75" shape="19.06,4.39 28.56,4.36 40.45,10.80 52.48,23.73"/>
    </edge>
    <edge id=":ITLS_c0" function="crossing" crossingEdges="JSNX JSNE">
        <lane id=":ITLS_c0_0" index="0" allow="pedestrian" speed="1.00" length="28.49" width="4.00" shape="59.64,15.87 36.84,32.95"/>
    </edge>
    <edge id=":ITLS_c1" function="crossing" crossingEdges="CAEX CAEE">
        <lane id=":ITLS_c1_0" index="0" allow="pedestrian" speed="1.00" length="43.95" width="4.00" shape="32.20,-40.99 58.28,-5.61"/>
    </edge>
    <edge id=":ITLS_c2" function="crossing" crossingEdges="JSSX JSSE">
        <lane id=":ITLS_c2_0" index="0" allow="pedestrian" speed="1.00" length="27.20" width="4.00" shape="1.79,-27.51 24.03,-43.18"/>
    </edge>
    <edge id=":ITLS_c3" function="crossing" crossingEdges="CAWX CAWE">
        <lane id=":ITLS_c3_0" index="0" allow="pedestrian" speed="1.00" length="39.65" width="4.00" shape="20.72,26.07 -4.94,-4.16"/>
    </edge>
    <edge id=":ITLS_w0" function="walkingarea">
        <lane id=":ITLS_w0_0" index="0" allow="pedestrian" speed="1.00" length="12.88" width="4.00" shape="19.20,27.36 20.37,28.73 36.14,35.98 38.04,34.52 34.54,30.44 31.17,27.50 27.96,25.72 24.89,25.11 21.97,25.65"/>
    </edge>
    <edge id=":ITLS_w1" function="walkingarea">
        <lane id=":ITLS_w1_0" index="0" allow="pedestrian" speed="1.00" length="15.47" width="4.00" shape="60.84,17.47 62.76,16.03 61.67,-4.39 59.89,-6.80 56.84,-3.85 55.07,-0.47 54.58,3.36 55.38,7.62 57.47,12.32"/>
    </edge>
    <edge id=":ITLS_w2" function="walkingarea">
        <lane id=":ITLS_w2_0" index="0" allow="pedestrian" speed="1.00" length="6.90" width="4.00" shape="33.81,-42.18 32.62,-43.79 24.84,-46.19 22.88,-44.81 24.56,-42.78 26.30,-41.39 28.09,-40.63 29.94,-40.51 31.85,-41.03"/>
    </edge>
    <edge id=":ITLS_w3" function="walkingarea">
        <lane id=":ITLS_w3_0" index="0" allow="pedestrian" speed="1.00" length="17.49" width="4.00" shape="0.64,-29.15 -1.32,-27.77 -7.64,-4.23 -6.47,-2.86 -1.81,-7.37 1.45,-11.82 3.33,-16.23 3.82,-20.59 2.93,-24.89"/>
    </edge>
    <edge id=":gneJ19_w0" function="walkingarea">
        <lane id=":gneJ19_w0_0" index="0" allow="pedestrian" speed="1.00" length="42.75" width="2.00" shape="313.94,-178.39 314.99,-176.68 291.65,-214.75 292.59,-213.22"/>
    </edge>
    <edge id=":gneJ20_0" function="internal">
        <lane id=":gneJ20_0_0" index="0" allow="motorcycle moped bicycle" speed="22.22" length="43.86" width="3.75" shape="177.71,-99.13 167.30,-91.92 160.89,-86.01 154.67,-79.81 144.84,-71.75"/>
        <lane id=":gneJ20_0_1" index="1" disallow="pedestrian motorcycle moped bicycle rail_fast" speed="22.22" length="43.86" width="3.00" shape="174.47,-104.41 164.09,-96.86 158.02,-90.35 152.14,-83.55 142.35,-75.13"/>
        <lane id=":gneJ20_0_2" index="2" disallow="pedestrian motorcycle moped bicycle rail_fast" speed="22.22" length="43.86" width="3.00" shape="172.51,-107.60 162.11,-99.91 156.15,-93.16 150.38,-86.12 140.57,-77.54"/>
        <lane id=":gneJ20_0_3" index="3" disallow="pedestrian motorcycle moped bicycle rail_fast" speed="22.22" length="43.86" width="3.00" shape="170.55,-110.80 160.13,-102.95 154.27,-95.97 148.61,-88.69 138.79,-79.96"/>
        <lane id=":gneJ20_0_4" index="4" disallow="pedestrian motorcycle moped bicycle rail_fast" speed="22.22" length="43.86" width="3.00" shape="170.55,-110.80 159.89,-103.35 153.38,-97.17 147.08,-90.70 137.01,-82.37"/>
        <lane id=":gneJ20_0_5" index="5" disallow="pedestrian motorcycle moped bicycle rail_fast" speed="22.22" length="43.86" width="3.00" shape="170.55,-110.80 135.23,-84.79"/>
        <lane id=":gneJ20_0_6" index="6" disallow="pedestrian motorcycle moped bicycle rail_fast" speed="22.22" length="43.86" width="3.00" shape="170.55,-110.80 133.45,-87.20"/>
    </edge>
    <edge id=":gneJ20_7" function="internal">
        <lane id=":gneJ20_7_0" index="0" allow="motorcycle moped bicycle" speed="22.22" length="45.09" width="3.75" shape="120.86,-104.28 159.26,-129.19"/>
        <lane id=":gneJ20_7_1" index="1" disallow="pedestrian motorcycle moped bicycle rail_fast" speed="22.22" length="45.09" width="3.75" shape="123.50,-100.70 161.65,-125.30"/>
        <lane id=":gneJ20_7_2" index="2" disallow="pedestrian motorcycle moped bicycle rail_fast" speed="22.22" length="45.09" width="3.75" shape="125.73,-97.68 163.61,-122.10"/>
        <lane id=":gneJ20_7_3" index="3" disallow="pedestrian motorcycle moped bicycle rail_fast" speed="22.22" length="45.09" width="3.75" shape="127.95,-94.66 165.58,-118.90"/>
        <lane id=":gneJ20_7_4" index="4" disallow="pedestrian motorcycle moped bicycle rail_fast" speed="22.22" length="45.09" width="3.75" shape="130.18,-91.64 167.54,-115.71"/>
    </edge>
    <edge id=":gneJ20_w0" function="walkingarea">
        <lane id=":gneJ20_w0_0" index="0" allow="pedestrian" speed="1.00" length="42.35" width="3.00" shape="145.95,-70.24 147.73,-67.83 180.59,-94.44 179.54,-96.14 171.96,-91.25 166.59,-87.30 162.36,-83.76 158.23,-80.09 153.11,-75.76"/>
    </edge>
    <edge id=":gneJ20_w1" function="walkingarea">
        <lane id=":gneJ20_w1_0" index="0" allow="pedestrian" speed="1.00" length="46.01" width="2.00" shape="158.28,-130.79 157.34,-132.32 118.64,-107.29 119.83,-105.68"/>
    </edge>
    <edge id=":gneJ22_0" function="internal">
        <lane id=":gneJ22_0_0" index="0" allow="motorcycle moped bicycle" speed="22.22" length="8.10" width="3.25" shape="-78.54,107.93 -84.41,113.56"/>
        <lane id=":gneJ22_0_1" index="1" disallow="pedestrian motorcycle moped bicycle rail_fast" speed="22.22" length="8.10" width="3.75" shape="-81.50,104.44 -83.26,106.09 -84.34,107.35 -85.42,108.61 -87.19,110.25"/>
        <lane id=":gneJ22_0_2" index="2" disallow="pedestrian motorcycle moped bicycle rail_fast" speed="22.22" length="8.10" width="3.75" shape="-83.76,101.77 -89.60,107.38"/>
        <lane id=":gneJ22_0_3" index="3" disallow="pedestrian motorcycle moped bicycle rail_fast" speed="22.22" length="8.10" width="3.75" shape="-85.86,99.29 -92.01,104.51"/>
        <lane id=":gneJ22_0_4" index="4" disallow="pedestrian motorcycle moped bicycle rail_fast" speed="22.22" length="8.10" width="3.75" shape="-87.96,96.81 -94.42,101.63"/>
    </edge>
    <edge id=":gneJ22_5" function="internal">
        <lane id=":gneJ22_5_0" index="0" allow="motorcycle moped bicycle" speed="22.22" length="8.13" width="3.75" shape="-108.31,85.48 -108.12,85.32 -101.86,80.39"/>
        <lane id=":gneJ22_5_1" index="1" disallow="pedestrian motorcycle moped bicycle rail_fast" speed="22.22" length="8.13" width="3.00" shape="-105.47,88.48 -99.15,83.59"/>
        <lane id=":gneJ22_5_2" index="2" disallow="pedestrian motorcycle moped bicycle rail_fast" speed="22.22" length="8.13" width="3.00" shape="-103.06,91.35 -97.21,85.88"/>
        <lane id=":gneJ22_5_3" index="3" disallow="pedestrian motorcycle moped bicycle rail_fast" speed="22.22" length="8.13" width="3.00" shape="-100.65,94.22 -98.93,92.54 -97.96,91.20 -96.98,89.85 -95.28,88.17"/>
        <lane id=":gneJ22_5_4" index="4" disallow="pedestrian motorcycle moped bicycle rail_fast" speed="22.22" length="8.13" width="3.00" shape="-98.23,97.09 -96.58,95.31 -95.78,93.78 -94.99,92.25 -93.34,90.46"/>
        <lane id=":gneJ22_5_5" index="5" disallow="pedestrian motorcycle moped bicycle rail_fast" speed="22.22" length="8.13" width="3.00" shape="-98.23,97.09 -96.29,95.68 -94.81,94.92 -93.33,94.16 -91.40,92.75"/>
    </edge>
    <edge id=":gneJ22_w0" function="walkingarea">
        <lane id=":gneJ22_w0_0" index="0" allow="pedestrian" speed="1.00" length="8.13" width="1.80" shape="-83.36,114.80 -82.21,116.18 -76.17,110.73 -77.33,109.36"/>
    </edge>
    <edge id=":gneJ22_w1" function="walkingarea">
        <lane id=":gneJ22_w1_0" index="0" allow="pedestrian" speed="1.00" length="7.95" width="1.80" shape="-103.08,78.96 -104.24,77.59 -110.40,82.60 -109.25,83.98"/>
    </edge>
    <edge id=":gneJ23_w0" function="walkingarea">
        <lane id=":gneJ23_w0_0" index="0" allow="pedestrian" speed="1.00" length="42.07" width="1.80" shape="-293.25,245.03 -294.44,243.68 -265.24,276.42 -266.44,275.08"/>
    </edge>
    <edge id=":gneJ24_0" function="internal">
        <lane id=":gneJ24_0_0" index="0" allow="motorcycle moped bicycle" speed="11.11" length="60.12" width="2.00" shape="100.65,114.48 64.21,66.99"/>
        <lane id=":gneJ24_0_1" index="1" allow="motorcycle moped bicycle" speed="11.11" length="60.12" width="2.00" shape="100.65,114.48 65.79,65.78"/>
        <lane id=":gneJ24_0_2" index="2" disallow="pedestrian motorcycle moped bicycle rail_fast" speed="11.11" length="60.12" width="3.30" shape="104.42,111.90 68.55,63.66"/>
        <lane id=":gneJ24_0_3" index="3" disallow="pedestrian motorcycle moped bicycle rail_fast" speed="11.11" length="60.12" width="3.30" shape="107.31,109.93 71.17,61.66"/>
        <lane id=":gneJ24_0_4" index="4" disallow="pedestrian motorcycle moped bicycle rail_fast" speed="11.11" length="60.12" width="3.30" shape="107.31,109.93 73.78,59.65"/>
    </edge>
    <edge id=":gneJ24_5" function="internal">
        <lane id=":gneJ24_5_0" index="0" allow="motorcycle moped bicycle" speed="11.11" length="60.93" width="3.50" shape="84.04,51.78 119.76,101.43"/>
        <lane id=":gneJ24_5_1" index="1" disallow="pedestrian motorcycle moped bicycle rail_fast" speed="11.11" length="60.93" width="3.75" shape="80.31,54.64 116.09,103.93"/>
        <lane id=":gneJ24_5_2" index="2" disallow="pedestrian motorcycle moped bicycle rail_fast" speed="11.11" length="60.93" width="3.75" shape="77.34,56.92 113.00,106.05"/>
    </edge>
    <edge id=":gneJ24_w0" function="walkingarea">
        <lane id=":gneJ24_w0_0" index="0" allow="pedestrian" speed="1.00" length="59.69" width="2.40" shape="63.41,67.60 61.51,69.06 97.02,116.96 99.00,115.61"/>
    </edge>
    <edge id=":gneJ24_w1" function="walkingarea">
        <lane id=":gneJ24_w1_0" index="0" allow="pedestrian" speed="1.00" length="61.33" width="2.40" shape="121.21,100.44 123.19,99.09 87.54,49.12 85.62,50.55"/>
    </edge>
    <edge id=":gneJ25_w0" function="walkingarea">
        <lane id=":gneJ25_w0_0" index="0" allow="pedestrian" speed="1.00" length="29.24" width="2.40" shape="218.05,290.20 216.07,291.55 242.22,273.74 240.23,275.09"/>
    </edge>
    <edge id=":gneJ26_0" function="internal">
        <lane id=":gneJ26_0_0" index="0" allow="motorcycle moped bicycle" speed="11.11" length="12.30" width="4.00" shape="-42.38,-93.71 -50.06,-103.35"/>
        <lane id=":gneJ26_0_1" index="1" disallow="pedestrian motorcycle moped bicycle rail_fast" speed="11.11" length="12.30" width="3.75" shape="-38.54,-96.41 -46.06,-106.13"/>
        <lane id=":gneJ26_0_2" index="2" disallow="pedestrian motorcycle moped bicycle rail_fast" speed="11.11" length="12.30" width="3.75" shape="-35.47,-98.57 -42.98,-108.27"/>
    </edge>
    <edge id=":gneJ26_3" function="internal">
        <lane id=":gneJ26_3_0" index="0" allow="motorcycle moped bicycle" speed="11.11" length="12.27" width="2.00" shape="-30.35,-117.05 -22.57,-107.65"/>
        <lane id=":gneJ26_3_1" index="1" allow="motorcycle moped bicycle" speed="11.11" length="12.27" width="2.00" shape="-30.35,-117.05 -24.21,-106.49"/>
        <lane id=":gneJ26_3_2" index="2" disallow="pedestrian motorcycle moped bicycle rail_fast" speed="11.11" length="12.27" width="3.00" shape="-34.21,-114.37 -26.92,-104.58"/>
        <lane id=":gneJ26_3_3" index="3" disallow="pedestrian motorcycle moped bicycle rail_fast" speed="11.11" length="12.27" width="3.00" shape="-37.29,-112.23 -35.07,-109.35 -33.34,-107.54 -31.61,-105.73 -29.38,-102.86"/>
        <lane id=":gneJ26_3_4" index="4" disallow="pedestrian motorcycle moped bicycle rail_fast" speed="11.11" length="12.27" width="3.00" shape="-37.29,-112.23 -35.45,-109.06 -34.57,-106.67 -33.69,-104.28 -31.83,-101.13"/>
    </edge>
    <edge id=":gneJ26_w0" function="walkingarea">
        <lane id=":gneJ26_w0_0" index="0" allow="pedestrian" speed="1.00" length="12.35" width="2.40" shape="-51.70,-102.21 -53.67,-100.84 -45.97,-91.17 -44.01,-92.56"/>
    </edge>
    <edge id=":gneJ26_w1" function="walkingarea">
        <lane id=":gneJ26_w1_0" index="0" allow="pedestrian" speed="1.00" length="12.15" width="2.40" shape="-21.76,-108.22 -19.79,-109.60 -26.74,-119.56 -28.71,-118.19"/>
    </edge>
    <edge id=":gneJ27_w0" function="walkingarea">
        <lane id=":gneJ27_w0_0" index="0" allow="pedestrian" speed="1.00" length="30.38" width="2.40" shape="-129.18,-275.49 -127.14,-276.77 -154.94,-259.40 -152.90,-260.67"/>
    </edge>

    <edge id="CAED" from="gneJ20" to="gneJ19" priority="-1" spreadType="center" shape="163.19,-122.79 297.60,-205.28">
        <lane id="CAED_0" index="0" allow="pedestrian" speed="22.22" length="157.59" width="1.80" shape="157.81,-131.56 292.12,-213.99"/>
        <lane id="CAED_1" index="1" allow="motorcycle moped bicycle" speed="22.22" length="157.59" width="3.75" shape="159.26,-129.19 293.57,-211.62"/>
        <lane id="CAED_2" index="2" disallow="all" speed="22.22" length="157.59" width="0.82" shape="160.46,-127.24 294.77,-209.67"/>
        <lane id="CAED_3" index="3" disallow="pedestrian motorcycle moped bicycle rail_fast" speed="22.22" length="157.59" width="3.75" shape="161.65,-125.30 295.96,-207.72"/>
        <lane id="CAED_4" index="4" disallow="pedestrian motorcycle moped bicycle rail_fast" speed="22.22" length="157.59" width="3.75" shape="163.61,-122.10 297.92,-204.53"/>
        <lane id="CAED_5" index="5" disallow="pedestrian motorcycle moped bicycle rail_fast" speed="22.22" length="157.59" width="3.75" shape="165.58,-118.90 299.88,-201.33"/>
        <lane id="CAED_6" index="6" disallow="pedestrian motorcycle moped bicycle rail_fast" speed="22.22" length="157.59" width="3.75" shape="167.54,-115.71 301.84,-198.13"/>
        <lane id="CAED_7" index="7" disallow="all" speed="22.22" length="157.59" width="1.00" shape="168.78,-113.68 303.08,-196.11"/>
    </edge>
    <edge id="CAEE" from="gneJ20" to="ITLS" priority="-1" spreadType="center" shape="139.85,-78.52 53.79,-15.08">
        <lane id="CAEE_0" index="0" allow="pedestrian" speed="22.22" length="106.92" width="3.00" shape="146.84,-69.03 60.78,-5.59"/>
        <lane id="CAEE_1" index="1" allow="motorcycle moped bicycle" speed="22.22" length="106.92" width="3.75" shape="144.84,-71.75 58.78,-8.31"/>
        <lane id="CAEE_2" index="2" disallow="all" speed="22.22" length="106.92" width="0.82" shape="143.48,-73.59 57.42,-10.15"/>
        <lane id="CAEE_3" index="3" disallow="pedestrian motorcycle moped bicycle rail_fast" speed="22.22" length="106.92" width="3.00" shape="142.35,-75.13 56.29,-11.69"/>
        <lane id="CAEE_4" index="4" disallow="pedestrian motorcycle moped bicycle rail_fast" speed="22.22" length="106.92" width="3.00" shape="140.57,-77.54 54.51,-14.10"/>
        <lane id="CAEE_5" index="5" disallow="pedestrian motorcycle moped bicycle rail_fast" speed="22.22" length="106.92" width="3.00" shape="138.79,-79.96 52.73,-16.52"/>
        <lane id="CAEE_6" index="6" disallow="pedestrian motorcycle moped bicycle rail_fast" speed="22.22" length="106.92" width="3.00" shape="137.01,-82.37 50.95,-18.93"/>
        <lane id="CAEE_7" index="7" disallow="pedestrian motorcycle moped bicycle rail_fast" speed="22.22" length="106.92" width="3.00" shape="135.23,-84.79 49.17,-21.35"/>
        <lane id="CAEE_8" index="8" disallow="pedestrian motorcycle moped bicycle rail_fast" speed="22.22" length="106.92" width="3.00" shape="133.45,-87.20 47.39,-23.76"/>
        <lane id="CAEE_9" index="9" disallow="all" speed="22.22" length="106.92" width="1.00" shape="132.26,-88.81 46.20,-25.37"/>
    </edge>
    <edge id="CAEU" from="gneJ19" to="gneJ20" priority="-1" spreadType="center" shape="308.61,-185.72 174.91,-103.90">
        <lane id="CAEU_0" index="0" allow="pedestrian" speed="22.22" length="157.57" width="2.00" shape="314.46,-177.54 180.07,-95.29"/>
        <lane id="CAEU_1" index="1" allow="motorcycle moped bicycle" speed="22.22" length="157.57" width="7.00" shape="312.11,-181.37 177.71,-99.13"/>
        <lane id="CAEU_2" index="2" disallow="all" speed="22.22" length="157.57" width="0.82" shape="310.07,-184.71 175.67,-102.46"/>
        <lane id="CAEU_3" index="3" disallow="pedestrian motorcycle moped bicycle rail_fast" speed="22.22" length="157.57" width="3.75" shape="308.88,-186.66 174.47,-104.41"/>
        <lane id="CAEU_4" index="4" disallow="pedestrian motorcycle moped bicycle rail_fast" speed="22.22" length="157.57" width="3.75" shape="306.92,-189.85 172.51,-107.60"/>
        <lane id="CAEU_5" index="5" disallow="pedestrian motorcycle moped bicycle rail_fast" speed="22.22" length="157.57" width="3.75" shape="304.96,-193.05 170.55,-110.80"/>