<?xml version="1.0" encoding="UTF-8"?>

<!-- generated on 07/21/20 23:14:32 by Eclipse SUMO netedit Version 1.6.0
<configuration xmlns:xsi="http://www.w3.org/2001/XMLSchema-instance" xsi:noNamespaceSchemaLocation="http://sumo.dlr.de/xsd/netconvertConfiguration.xsd">

    <input>
        <sumo-net-file value="D:\data\Intellectual-Traffic-Light-System\project\ITLS.naive.net.xml"/>
    </input>

    <output>
        <output-file value="D:\data\Intellectual-Traffic-Light-System\project\ITLS.naive.net.xml"/>
    </output>

    <processing>
        <geometry.min-radius.fix.railways value="false"/>
        <geometry.max-grade.fix value="false"/>
        <offset.disable-normalization value="true"/>
        <lefthand value="false"/>
    </processing>

    <junctions>
        <no-turnarounds value="true"/>
        <junctions.corner-detail value="5"/>
        <junctions.limit-turn-speed value="5.5"/>
        <rectangular-lane-cut value="false"/>
    </junctions>

    <pedestrian>
        <walkingareas value="false"/>
    </pedestrian>

    <report>
        <aggregate-warnings value="5"/>
    </report>

</configuration>
-->

<net version="1.6" junctionCornerDetail="5" limitTurnSpeed="5.50" xmlns:xsi="http://www.w3.org/2001/XMLSchema-instance" xsi:noNamespaceSchemaLocation="http://sumo.dlr.de/xsd/net_file.xsd">

    <location netOffset="0.00,0.00" convBoundary="-339.56,-146.48,285.32,323.40" origBoundary="-10000000000.00,-10000000000.00,10000000000.00,10000000000.00" projParameter="!"/>

    <edge id=":EFlared_0" function="internal">
        <lane id=":EFlared_0_0" index="0" allow="motorcycle moped bicycle" speed="22.22" length="57.17" width="3.25" shape="209.26,99.30 152.13,101.29"/>
        <lane id=":EFlared_0_1" index="1" allow="private emergency authority vip passenger hov taxi bus coach delivery truck trailer evehicle custom1 custom2" speed="22.22" length="57.17" width="3.25" shape="209.26,94.05 152.14,98.04"/>
        <lane id=":EFlared_0_2" index="2" allow="private emergency authority vip passenger hov taxi bus coach delivery truck trailer evehicle custom1 custom2" speed="22.22" length="57.17" width="3.25" shape="209.26,94.05 152.15,94.79"/>
        <lane id=":EFlared_0_3" index="3" allow="private emergency authority vip passenger hov taxi bus coach delivery truck trailer evehicle custom1 custom2" speed="22.22" length="57.17" width="3.25" shape="209.26,90.55 152.16,91.54"/>
        <lane id=":EFlared_0_4" index="4" allow="private emergency authority vip passenger hov taxi bus coach delivery truck trailer evehicle custom1 custom2" speed="22.22" length="57.17" width="3.25" shape="209.26,87.05 152.18,88.29"/>
        <lane id=":EFlared_0_5" index="5" allow="private emergency authority vip passenger hov taxi bus coach delivery truck trailer evehicle custom1 custom2" speed="22.22" length="57.17" width="3.25" shape="209.26,87.05 152.19,85.04"/>
        <lane id=":EFlared_0_6" index="6" allow="private emergency authority vip passenger hov taxi bus coach delivery truck trailer evehicle custom1 custom2" speed="22.22" length="57.17" width="3.25" shape="209.26,87.05 195.93,86.24 183.97,84.46 170.39,82.66 152.20,81.79"/>
    </edge>
    <edge id=":EFlared_7" function="internal">
        <lane id=":EFlared_7_0" index="0" allow="motorcycle moped bicycle" speed="22.22" length="57.02" width="3.50" shape="152.27,64.46 209.26,64.52"/>
        <lane id=":EFlared_7_1" index="1" allow="private emergency authority vip passenger hov taxi bus coach delivery truck trailer evehicle custom1 custom2" speed="22.22" length="57.02" width="3.50" shape="152.25,67.96 209.26,68.02"/>
        <lane id=":EFlared_7_2" index="2" allow="private emergency authority vip passenger hov taxi bus coach delivery truck trailer evehicle custom1 custom2" speed="22.22" length="57.02" width="3.50" shape="152.24,71.46 209.26,71.52"/>
        <lane id=":EFlared_7_3" index="3" allow="private emergency authority vip passenger hov taxi bus coach delivery truck trailer evehicle custom1 custom2" speed="22.22" length="57.02" width="3.50" shape="152.23,74.96 209.26,75.02"/>
        <lane id=":EFlared_7_4" index="4" allow="private emergency authority vip passenger hov taxi bus coach delivery truck trailer evehicle custom1 custom2" speed="22.22" length="57.02" width="3.50" shape="152.21,78.46 209.26,78.52"/>
    </edge>
    <edge id=":ITLS_0" function="internal">
        <lane id=":ITLS_0_0" index="0" allow="motorcycle moped bicycle" speed="15.74" length="57.77" width="3.50" shape="31.26,135.10 29.10,118.72 22.68,107.01 12.01,99.99 -2.93,97.64"/>
    </edge>
    <edge id=":ITLS_1" function="internal">
        <lane id=":ITLS_1_0" index="0" allow="motorcycle moped bicycle" speed="11.11" length="105.32" width="3.75" shape="31.26,135.10 36.40,29.91"/>
    </edge>
    <edge id=":ITLS_2" function="internal">
        <lane id=":ITLS_2_0" index="0" allow="motorcycle moped bicycle" speed="16.66" length="103.87" width="3.50" shape="34.51,135.09 38.07,104.14 48.89,82.04 66.96,68.79 92.28,64.40"/>
    </edge>
    <edge id=":ITLS_3" function="internal">
        <lane id=":ITLS_3_0" index="0" allow="private emergency authority vip passenger hov taxi bus coach delivery truck trailer evehicle custom1 custom2" speed="16.66" length="20.21" width="3.50" shape="37.76,135.09 35.19,117.18 34.10,115.36"/>
    </edge>
    <edge id=":ITLS_4" function="internal">
        <lane id=":ITLS_4_0" index="0" allow="private emergency authority vip passenger hov taxi bus coach delivery truck trailer evehicle custom1 custom2" speed="11.11" length="105.21" width="3.75" shape="37.76,135.09 40.15,29.90"/>
        <lane id=":ITLS_4_1" index="1" allow="private emergency authority vip passenger hov taxi bus coach delivery truck trailer evehicle custom1 custom2" speed="11.11" length="105.21" width="3.75" shape="41.01,135.08 43.90,29.90"/>
    </edge>
    <edge id=":ITLS_6" function="internal">
        <lane id=":ITLS_6_0" index="0" allow="private emergency authority vip passenger hov taxi bus coach delivery truck trailer evehicle custom1 custom2" speed="16.66" length="84.59" width="3.50" shape="44.26,135.08 47.22,110.26 56.21,92.54 71.23,81.92 92.27,78.40"/>
    </edge>
    <edge id=":ITLS_33" function="internal">
        <lane id=":ITLS_33_0" index="0" allow="private emergency authority vip passenger hov taxi bus coach delivery truck trailer evehicle custom1 custom2" speed="16.66" length="45.58" width="3.50" shape="34.10,115.36 27.55,104.39 14.85,96.71 -2.93,94.14"/>
    </edge>
    <edge id=":ITLS_7" function="internal">
        <lane id=":ITLS_7_0" index="0" allow="motorcycle moped bicycle" speed="15.63" length="57.33" width="3.75" shape="92.25,101.06 76.04,103.13 64.48,109.49 57.55,120.13 55.26,135.06"/>
    </edge>
    <edge id=":ITLS_8" function="internal">
        <lane id=":ITLS_8_0" index="0" allow="motorcycle moped bicycle" speed="22.22" length="95.23" width="3.50" shape="92.25,101.06 -2.93,97.64"/>
    </edge>
    <edge id=":ITLS_9" function="internal">
        <lane id=":ITLS_9_0" index="0" allow="motorcycle moped bicycle" speed="16.66" length="102.62" width="3.75" shape="92.25,101.06 67.82,96.53 50.38,83.17 39.90,60.96 36.40,29.91"/>
    </edge>
    <edge id=":ITLS_10" function="internal">
        <lane id=":ITLS_10_0" index="0" allow="private emergency authority vip passenger hov taxi bus coach delivery truck trailer evehicle custom1 custom2" speed="16.37" length="9.27" width="3.75" shape="92.25,97.81 83.06,98.98"/>
    </edge>
    <edge id=":ITLS_11" function="internal">
        <lane id=":ITLS_11_0" index="0" allow="private emergency authority vip passenger hov taxi bus coach delivery truck trailer evehicle custom1 custom2" speed="22.22" length="95.27" width="3.50" shape="92.25,94.56 -2.92,90.64"/>
        <lane id=":ITLS_11_1" index="1" allow="private emergency authority vip passenger hov taxi bus coach delivery truck trailer evehicle custom1 custom2" speed="22.22" length="95.27" width="3.50" shape="92.26,91.31 -2.92,87.14"/>
        <lane id=":ITLS_11_2" index="2" allow="private emergency authority vip passenger hov taxi bus coach delivery truck trailer evehicle custom1 custom2" speed="22.22" length="95.27" width="3.50" shape="92.26,88.06 -2.92,83.64"/>
    </edge>
    <edge id=":ITLS_14" function="internal">
        <lane id=":ITLS_14_0" index="0" allow="private emergency authority vip passenger hov taxi bus coach delivery truck trailer evehicle custom1 custom2" speed="16.66" length="86.23" width="3.75" shape="92.26,84.81 69.47,81.31 53.19,70.99 43.42,53.85 40.15,29.90"/>
    </edge>
    <edge id=":ITLS_15" function="internal">
        <lane id=":ITLS_15_0" index="0" allow="private emergency authority vip passenger hov taxi bus coach delivery truck trailer evehicle custom1 custom2" speed="16.66" length="80.60" width="3.75" shape="92.27,81.56 71.11,78.26 56.00,68.55 46.93,52.43 43.90,29.90"/>
    </edge>
    <edge id=":ITLS_34" function="internal">
        <lane id=":ITLS_34_0" index="0" allow="private emergency authority vip passenger hov taxi bus coach delivery truck trailer evehicle custom1 custom2" speed="16.37" length="53.73" width="3.75" shape="83.06,98.98 74.40,100.08 61.66,107.05 54.03,118.71 51.51,135.06"/>
    </edge>
    <edge id=":ITLS_16" function="internal">
        <lane id=":ITLS_16_0" index="0" allow="motorcycle moped bicycle" speed="15.25" length="54.72" width="3.50" shape="58.90,29.90 60.99,44.98 67.25,55.75 77.68,62.23 92.28,64.40"/>
    </edge>
    <edge id=":ITLS_17" function="internal">
        <lane id=":ITLS_17_0" index="0" allow="motorcycle moped bicycle" speed="11.11" length="105.22" width="3.75" shape="58.90,29.90 55.26,135.06"/>
    </edge>
    <edge id=":ITLS_18" function="internal">
        <lane id=":ITLS_18_0" index="0" allow="motorcycle moped bicycle" speed="16.66" length="103.16" width="3.50" shape="57.15,29.90 53.40,59.54 42.14,80.72 23.36,93.42 -2.93,97.64"/>
    </edge>
    <edge id=":ITLS_19" function="internal">
        <lane id=":ITLS_19_0" index="0" allow="private emergency authority vip passenger hov taxi bus coach delivery truck trailer evehicle custom1 custom2" speed="16.18" length="14.27" width="3.50" shape="54.52,29.90 56.54,44.02"/>
    </edge>
    <edge id=":ITLS_20" function="internal">
        <lane id=":ITLS_20_0" index="0" allow="private emergency authority vip passenger hov taxi bus coach delivery truck trailer evehicle custom1 custom2" speed="11.11" length="105.21" width="3.75" shape="54.52,29.90 51.51,135.06"/>
        <lane id=":ITLS_20_1" index="1" allow="private emergency authority vip passenger hov taxi bus coach delivery truck trailer evehicle custom1 custom2" speed="11.11" length="105.21" width="3.75" shape="51.02,29.90 47.76,135.07"/>
    </edge>
    <edge id=":ITLS_22" function="internal">
        <lane id=":ITLS_22_0" index="0" allow="private emergency authority vip passenger hov taxi bus coach delivery truck trailer evehicle custom1 custom2" speed="16.66" length="84.04" width="3.50" shape="47.52,29.90 44.38,53.42 34.92,70.22 19.15,80.29 -2.92,83.64"/>
    </edge>
    <edge id=":ITLS_35" function="internal">
        <lane id=":ITLS_35_0" index="0" allow="private emergency authority vip passenger hov taxi bus coach delivery truck trailer evehicle custom1 custom2" speed="16.18" length="46.80" width="3.50" shape="56.54,44.02 56.89,46.51 63.97,58.38 75.77,65.51 92.28,67.90"/>
    </edge>
    <edge id=":ITLS_23" function="internal">
        <lane id=":ITLS_23_0" index="0" allow="motorcycle moped bicycle" speed="12.50" length="59.28" width="3.75" shape="-2.92,64.02 14.29,61.89 26.58,55.50 33.95,44.83 36.40,29.91"/>
    </edge>
    <edge id=":ITLS_24" function="internal">
        <lane id=":ITLS_24_0" index="0" allow="motorcycle moped bicycle" speed="18.06" length="95.20" width="3.50" shape="-2.92,64.02 92.28,64.40"/>
    </edge>
    <edge id=":ITLS_25" function="internal">
        <lane id=":ITLS_25_0" index="0" allow="motorcycle moped bicycle" speed="12.50" length="104.35" width="3.75" shape="-2.92,64.02 22.49,68.47 40.65,81.79 51.58,103.98 55.26,135.06"/>
    </edge>
    <edge id=":ITLS_26" function="internal">
        <lane id=":ITLS_26_0" index="0" allow="private emergency authority vip passenger hov taxi bus coach delivery truck trailer evehicle custom1 custom2" speed="12.50" length="11.85" width="3.75" shape="-2.92,67.27 8.84,65.82"/>
    </edge>
    <edge id=":ITLS_27" function="internal">
        <lane id=":ITLS_27_0" index="0" allow="private emergency authority vip passenger hov taxi bus coach delivery truck trailer evehicle custom1 custom2" speed="18.06" length="95.25" width="3.50" shape="-2.92,67.27 92.28,67.90"/>
        <lane id=":ITLS_27_1" index="1" allow="private emergency authority vip passenger hov taxi bus coach delivery truck trailer evehicle custom1 custom2" speed="18.06" length="95.25" width="3.50" shape="-2.92,70.52 92.28,71.40"/>
        <lane id=":ITLS_27_2" index="2" allow="private emergency authority vip passenger hov taxi bus coach delivery truck trailer evehicle custom1 custom2" speed="18.06" length="95.25" width="3.50" shape="-2.92,70.52 92.27,74.90"/>
        <lane id=":ITLS_27_3" index="3" allow="private emergency authority vip passenger hov taxi bus coach delivery truck trailer evehicle custom1 custom2" speed="18.06" length="95.25" width="3.50" shape="-2.92,73.77 92.27,78.40"/>
    </edge>
    <edge id=":ITLS_31" function="internal">
        <lane id=":ITLS_31_0" index="0" allow="private emergency authority vip passenger hov taxi bus coach delivery truck trailer evehicle custom1 custom2" speed="12.50" length="90.67" width="3.75" shape="-2.92,77.02 20.85,80.65 37.85,91.54 48.07,109.68 51.51,135.06"/>
    </edge>
    <edge id=":ITLS_32" function="internal">
        <lane id=":ITLS_32_0" index="0" allow="private emergency authority vip passenger hov taxi bus coach delivery truck trailer evehicle custom1 custom2" speed="12.50" length="85.04" width="3.75" shape="-2.92,80.27 19.22,83.70 35.04,93.98 44.56,111.10 47.76,135.07"/>
    </edge>
    <edge id=":ITLS_36" function="internal">
        <lane id=":ITLS_36_0" index="0" allow="private emergency authority vip passenger hov taxi bus coach delivery truck trailer evehicle custom1 custom2" speed="12.50" length="53.09" width="3.75" shape="8.84,65.82 15.93,64.94 29.39,57.93 37.47,46.26 40.15,29.90"/>
    </edge>
    <edge id=":NFlared_0" function="internal">
        <lane id=":NFlared_0_0" index="0" allow="motorcycle moped bicycle" speed="11.11" length="24.29" width="3.25" shape="36.61,196.71 35.79,189.51 33.98,184.72 32.17,179.93 31.33,172.73"/>
        <lane id=":NFlared_0_1" index="1" allow="private emergency authority vip passenger hov taxi bus coach delivery truck trailer evehicle custom1 custom2" speed="11.11" length="24.29" width="3.25" shape="40.36,196.70 39.97,189.56 39.10,184.71 38.24,179.86 37.83,172.72"/>
        <lane id=":NFlared_0_2" index="2" allow="private emergency authority vip passenger hov taxi bus coach delivery truck trailer evehicle custom1 custom2" speed="11.11" length="24.29" width="3.25" shape="44.11,196.70 43.64,189.55 42.60,184.71 41.56,179.86 41.08,172.71"/>
        <lane id=":NFlared_0_3" index="3" allow="private emergency authority vip passenger hov taxi bus coach delivery truck trailer evehicle custom1 custom2" speed="11.11" length="24.29" width="3.25" shape="44.11,196.70 44.33,172.70"/>
    </edge>
    <edge id=":NFlared_4" function="internal">
        <lane id=":NFlared_4_0" index="0" allow="motorcycle moped bicycle" speed="11.11" length="24.01" width="3.75" shape="55.33,172.68 55.36,196.70"/>
        <lane id=":NFlared_4_1" index="1" allow="private emergency authority vip passenger hov taxi bus coach delivery truck trailer evehicle custom1 custom2" speed="11.11" length="24.01" width="3.75" shape="51.58,172.69 51.61,196.70"/>
        <lane id=":NFlared_4_2" index="2" allow="private emergency authority vip passenger hov taxi bus coach delivery truck trailer evehicle custom1 custom2" speed="11.11" length="24.01" width="3.75" shape="47.83,172.70 47.86,196.70"/>
    </edge>
    <edge id=":SFlared_0" function="internal">
        <lane id=":SFlared_0_0" index="0" allow="motorcycle moped bicycle" speed="11.11" length="30.01" width="3.75" shape="36.38,-38.16 36.38,-68.17"/>
        <lane id=":SFlared_0_1" index="1" allow="private emergency authority vip passenger hov taxi bus coach delivery truck trailer evehicle custom1 custom2" speed="11.11" length="30.01" width="3.75" shape="40.13,-38.16 40.13,-68.17"/>
        <lane id=":SFlared_0_2" index="2" allow="private emergency authority vip passenger hov taxi bus coach delivery truck trailer evehicle custom1 custom2" speed="11.11" length="30.01" width="3.75" shape="43.88,-38.16 43.88,-68.17"/>
    </edge>
    <edge id=":SFlared_3" function="internal">
        <lane id=":SFlared_3_0" index="0" allow="motorcycle moped bicycle" speed="11.11" length="30.05" width="1.75" shape="57.88,-68.16 58.88,-38.16"/>
        <lane id=":SFlared_3_1" index="1" allow="motorcycle moped bicycle" speed="11.11" length="30.05" width="1.75" shape="57.88,-68.16 57.13,-38.16"/>
        <lane id=":SFlared_3_2" index="2" allow="private emergency authority vip passenger hov taxi bus coach delivery truck trailer evehicle custom1 custom2" speed="11.11" length="30.05" width="3.50" shape="54.13,-68.16 54.50,-38.16"/>
        <lane id=":SFlared_3_3" index="3" allow="private emergency authority vip passenger hov taxi bus coach delivery truck trailer evehicle custom1 custom2" speed="11.11" length="30.05" width="3.50" shape="50.38,-68.17 51.00,-38.16"/>
        <lane id=":SFlared_3_4" index="4" allow="private emergency authority vip passenger hov taxi bus coach delivery truck trailer evehicle custom1 custom2" speed="11.11" length="30.05" width="3.50" shape="50.38,-68.17 49.93,-59.27 48.94,-53.19 47.95,-47.10 47.50,-38.16"/>
    </edge>
    <edge id=":WFlared_0" function="internal">
        <lane id=":WFlared_0_0" index="0" allow="motorcycle moped bicycle" speed="22.22" length="38.99" width="3.50" shape="-95.25,97.61 -134.23,97.60"/>
        <lane id=":WFlared_0_1" index="1" allow="private emergency authority vip passenger hov taxi bus coach delivery truck trailer evehicle custom1 custom2" speed="22.22" length="38.99" width="3.50" shape="-95.24,94.11 -134.23,94.10"/>
        <lane id=":WFlared_0_2" index="2" allow="private emergency authority vip passenger hov taxi bus coach delivery truck trailer evehicle custom1 custom2" speed="22.22" length="38.99" width="3.50" shape="-95.24,90.61 -134.24,90.60"/>
        <lane id=":WFlared_0_3" index="3" allow="private emergency authority vip passenger hov taxi bus coach delivery truck trailer evehicle custom1 custom2" speed="22.22" length="38.99" width="3.50" shape="-95.24,87.11 -134.24,87.10"/>
        <lane id=":WFlared_0_4" index="4" allow="private emergency authority vip passenger hov taxi bus coach delivery truck trailer evehicle custom1 custom2" speed="22.22" length="38.99" width="3.50" shape="-95.24,83.61 -134.24,83.60"/>
    </edge>
    <edge id=":WFlared_5" function="internal">
        <lane id=":WFlared_5_0" index="0" allow="motorcycle moped bicycle" speed="18.06" length="39.02" width="3.25" shape="-134.25,64.09 -95.23,63.99"/>
        <lane id=":WFlared_5_1" index="1" allow="private emergency authority vip passenger hov taxi bus coach delivery truck trailer evehicle custom1 custom2" speed="18.06" length="39.02" width="3.25" shape="-134.25,67.59 -95.24,67.24"/>
        <lane id=":WFlared_5_2" index="2" allow="private emergency authority vip passenger hov taxi bus coach delivery truck trailer evehicle custom1 custom2" speed="18.06" length="39.02" width="3.25" shape="-134.24,71.09 -95.24,70.49"/>
        <lane id=":WFlared_5_3" index="3" allow="private emergency authority vip passenger hov taxi bus coach delivery truck trailer evehicle custom1 custom2" speed="18.06" length="39.02" width="3.25" shape="-134.24,74.59 -95.24,73.74"/>
        <lane id=":WFlared_5_4" index="4" allow="private emergency authority vip passenger hov taxi bus coach delivery truck trailer evehicle custom1 custom2" speed="18.06" length="39.02" width="3.25" shape="-134.24,78.09 -95.24,76.99"/>
        <lane id=":WFlared_5_5" index="5" allow="private emergency authority vip passenger hov taxi bus coach delivery truck trailer evehicle custom1 custom2" speed="18.06" length="39.02" width="3.25" shape="-134.24,78.09 -95.24,80.24"/>
    </edge>

    <edge id="CAED" from="EFlared" to="EEnd" priority="-1" shape="174.25,80.27 273.45,80.27">
        <lane id="CAED_0" index="0" allow="motorcycle moped bicycle" speed="22.22" length="76.06" width="3.50" shape="209.26,64.52 285.32,64.52"/>
        <lane id="CAED_1" index="1" allow="private emergency authority vip passenger hov taxi bus coach delivery truck trailer evehicle custom1 custom2" speed="22.22" length="76.06" width="3.50" shape="209.26,68.02 285.32,68.02"/>
        <lane id="CAED_2" index="2" allow="private emergency authority vip passenger hov taxi bus coach delivery truck trailer evehicle custom1 custom2" speed="22.22" length="76.06" width="3.50" shape="209.26,71.52 285.32,71.52"/>
        <lane id="CAED_3" index="3" allow="private emergency authority vip passenger hov taxi bus coach delivery truck trailer evehicle custom1 custom2" speed="22.22" length="76.06" width="3.50" shape="209.26,75.02 285.32,75.02"/>
        <lane id="CAED_4" index="4" allow="private emergency authority vip passenger hov taxi bus coach delivery truck trailer evehicle custom1 custom2" speed="22.22" length="76.06" width="3.50" shape="209.26,78.52 285.32,78.52"/>
    </edge>
    <edge id="CAEE" from="EFlared" to="ITLS" priority="-1" shape="187.27,80.30 67.02,79.84">
        <lane id="CAEE_0" index="0" allow="motorcycle moped bicycle" speed="22.22" length="59.91" width="3.25" shape="152.13,101.29 92.25,101.06"/>
        <lane id="CAEE_1" index="1" allow="private emergency authority vip passenger hov taxi bus coach delivery truck trailer evehicle custom1 custom2" speed="22.22" length="59.91" width="3.25" shape="152.14,98.04 92.25,97.81"/>
        <lane id="CAEE_2" index="2" allow="private emergency authority vip passenger hov taxi bus coach delivery truck trailer evehicle custom1 custom2" speed="22.22" length="59.91" width="3.25" shape="152.15,94.79 92.25,94.56"/>
        <lane id="CAEE_3" index="3" allow="private emergency authority vip passenger hov taxi bus coach delivery truck trailer evehicle custom1 custom2" speed="22.22" length="59.91" width="3.25" shape="152.16,91.54 92.26,91.31"/>
        <lane id="CAEE_4" index="4" allow="private emergency authority vip passenger hov taxi bus coach delivery truck trailer evehicle custom1 custom2" speed="22.22" length="59.91" width="3.25" shape="152.18,88.29 92.26,88.06"/>
        <lane id="CAEE_5" index="5" allow="private emergency authority vip passenger hov taxi bus coach delivery truck trailer evehicle custom1 custom2" speed="22.22" length="59.91" width="3.25" shape="152.19,85.04 92.26,84.81"/>
        <lane id="CAEE_6" index="6" allow="private emergency authority vip passenger hov taxi bus coach delivery truck trailer evehicle custom1 custom2" speed="22.22" length="59.91" width="3.25" shape="152.20,81.79 92.27,81.56"/>
    </edge>
    <edge id="CAEU" from="EEnd" to="EFlared" priority="-1" shape="269.68,85.29 187.39,85.30">
        <lane id="CAEU_0" index="0" allow="motorcycle moped bicycle" speed="22.22" length="76.06" width="7.00" shape="285.32,99.29 209.26,99.30"/>
        <lane id="CAEU_1" index="1" allow="private emergency authority vip passenger hov taxi bus coach delivery truck trailer evehicle custom1 custom2" speed="22.22" length="76.06" width="3.50" shape="285.32,94.04 209.26,94.05"/>
        <lane id="CAEU_2" index="2" allow="private emergency authority vip passenger hov taxi bus coach delivery truck trailer evehicle custom1 custom2" speed="22.22" length="76.06" width="3.50" shape="285.32,90.54 209.26,90.55"/>
        <lane id="CAEU_3" index="3" allow="private emergency authority vip passenger hov taxi bus coach delivery truck trailer evehicle custom1 custom2" speed="22.22" length="76.06" width="3.50" shape="285.32,87.04 209.26,87.05"/>
    </edge>
    <edge id="CAEX" from="ITLS" to="EFlared" priority="-1" shape="66.67,80.12 187.24,80.24">
        <lane id="CAEX_0" index="0" allow="motorcycle moped bicycle" speed="22.22" length="59.97" width="3.50" shape="92.28,64.40 152.27,64.46"/>
        <lane id="CAEX_1" index="1" allow="private emergency authority vip passenger hov taxi bus coach delivery truck trailer evehicle custom1 custom2" speed="22.22" length="59.97" width="3.50" shape="92.28,67.90 152.25,67.96"/>
        <lane id="CAEX_2" index="2" allow="private emergency authority vip passenger hov taxi bus coach delivery truck trailer evehicle custom1 custom2" speed="22.22" length="59.97" width="3.50" shape="92.28,71.40 152.24,71.46"/>
        <lane id="CAEX_3" index="3" allow="private emergency authority vip passenger hov taxi bus coach delivery truck trailer evehicle custom1 custom2" speed="22.22" length="59.97" width="3.50" shape="92.27,74.90 152.23,74.96"/>
        <lane id="CAEX_4" index="4" allow="private emergency authority vip passenger hov taxi bus coach delivery truck trailer evehicle custom1 custom2" speed="22.22" length="59.97" width="3.50" shape="92.27,78.40 152.21,78.46"/>
    </edge>
    <edge id="CAWD" from="WFlared" to="WEnd" priority="-1" shape="-128.16,81.85 -339.56,81.94">
        <lane id="CAWD_0" index="0" allow="motorcycle moped bicycle" speed="22.22" length="205.32" width="3.50" shape="-134.23,97.60 -339.55,97.69"/>
        <lane id="CAWD_1" index="1" allow="private emergency authority vip passenger hov taxi bus coach delivery truck trailer evehicle custom1 custom2" speed="22.22" length="205.32" width="3.50" shape="-134.23,94.10 -339.55,94.19"/>
        <lane id="CAWD_2" index="2" allow="private emergency authority vip passenger hov taxi bus coach delivery truck trailer evehicle custom1 custom2" speed="22.22" length="205.32" width="3.50" shape="-134.24,90.60 -339.56,90.69"/>
        <lane id="CAWD_3" index="3" allow="private emergency authority vip passenger hov taxi bus coach delivery truck trailer evehicle custom1 custom2" speed="22.22" length="205.32" width="3.50" shape="-134.24,87.10 -339.56,87.19"/>
        <lane id="CAWD_4" index="4" allow="private emergency authority vip passenger hov taxi bus coach delivery truck trailer evehicle custom1 custom2" speed="22.22" length="205.32" width="3.50" shape="-134.24,83.60 -339.56,83.69"/>
    </edge>
    <edge id="CAWE" from="WFlared" to="ITLS" priority="-1">
        <lane id="CAWE_0" index="0" allow="motorcycle moped bicycle" speed="13.89" length="92.32" width="3.25" shape="-95.23,63.99 -2.92,64.02"/>
        <lane id="CAWE_1" index="1" allow="private emergency authority vip passenger hov taxi bus coach delivery truck trailer evehicle custom1 custom2" speed="13.89" length="92.32" width="3.25" shape="-95.24,67.24 -2.92,67.27"/>
        <lane id="CAWE_2" index="2" allow="private emergency authority vip passenger hov taxi bus coach delivery truck trailer evehicle custom1 custom2" speed="13.89" length="92.32" width="3.25" shape="-95.24,70.49 -2.92,70.52"/>
        <lane id="CAWE_3" index="3" allow="private emergency authority vip passenger hov taxi bus coach delivery truck trailer evehicle custom1 custom2" speed="13.89" length="92.32" width="3.25" shape="-95.24,73.74 -2.92,73.77"/>
        <lane id="CAWE_4" index="4" allow="private emergency authority vip passenger hov taxi bus coach delivery truck trailer evehicle custom1 custom2" speed="13.89" length="92.32" width="3.25" shape="-95.24,76.99 -2.92,77.02"/>
        <lane id="CAWE_5" index="5" allow="private emergency authority vip passenger hov taxi bus coach delivery truck trailer evehicle custom1 custom2" speed="13.89" length="92.32" width="3.25" shape="-95.24,80.24 -2.92,80.27"/>
    </edge>
    <edge id="CAWU" from="WEnd" to="WFlared" priority="-1" shape="-327.06,79.78 -122.37,79.84">
        <lane id="CAWU_0" index="0" allow="motorcycle moped bicycle" speed="22.22" length="205.31" width="3.50" shape="-339.55,64.03 -134.25,64.09"/>
        <lane id="CAWU_1" index="1" allow="private emergency authority vip passenger hov taxi bus coach delivery truck trailer evehicle custom1 custom2" speed="22.22" length="205.31" width="3.50" shape="-339.55,67.53 -134.25,67.59"/>
        <lane id="CAWU_2" index="2" allow="private emergency authority vip passenger hov taxi bus coach delivery truck trailer evehicle custom1 custom2" speed="22.22" length="205.31" width="3.50" shape="-339.55,71.03 -134.24,71.09"/>
        <lane id="CAWU_3" index="3" allow="private emergency authority vip passenger hov taxi bus coach delivery truck trailer evehicle custom1 custom2" speed="22.22" length="205.31" width="3.50" shape="-339.55,74.53 -134.24,74.59"/>
        <lane id="CAWU_4" index="4" allow="private emergency authority vip passenger hov taxi bus coach delivery truck trailer evehicle custom1 custom2" speed="22.22" length="205.31" width="3.50" shape="-339.55,78.03 -134.24,78.09"/>
    </edge>
    <edge id="CAWX" from="ITLS" to="WFlared" priority="-1">
        <lane id="CAWX_0" index="0" allow="motorcycle moped bicycle" speed="22.22" length="92.32" width="3.50" shape="-2.93,97.64 -95.25,97.61"/>
        <lane id="CAWX_1" index="1" allow="private emergency authority vip passenger hov taxi bus coach delivery truck trailer evehicle custom1 custom2" speed="22.22" length="92.32" width="3.50" shape="-2.93,94.14 -95.24,94.11"/>
        <lane id="CAWX_2" index="2" allow="private emergency authority vip passenger hov taxi bus coach delivery truck trailer evehicle custom1 custom2" speed="22.22" length="92.32" width="3.50" shape="-2.92,90.64 -95.24,90.61"/>