<?xml version="1.0" encoding="UTF-8"?>

<!-- generated on 12/12/19 20:58:18 by Eclipse SUMO netedit Version 1.3.1
<configuration xmlns:xsi="http://www.w3.org/2001/XMLSchema-instance" xsi:noNamespaceSchemaLocation="http://sumo.dlr.de/xsd/netconvertConfiguration.xsd">

    <input>
        <sumo-net-file value="E:\Project\DQN_INTERCONTROLLER\ITLS\ITLS.net.xml"/>
    </input>

    <output>
        <output-file value="E:\Project\DQN_INTERCONTROLLER\ITLS\ITLS.net.xml"/>
    </output>

    <processing>
        <geometry.max-grade.fix value="false"/>
        <offset.disable-normalization value="true"/>
        <opposites.guess.fix-lengths value="true"/>
        <lefthand value="false"/>
    </processing>

    <junctions>
        <no-internal-links value="false"/>
        <no-turnarounds value="true"/>
        <junctions.corner-detail value="5"/>
        <junctions.limit-turn-speed value="5.5"/>
        <rectangular-lane-cut value="false"/>
    </junctions>

    <pedestrian>
        <walkingareas value="false"/>
    </pedestrian>

</configuration>
-->

<net version="1.3" junctionCornerDetail="5" limitTurnSpeed="5.50" xmlns:xsi="http://www.w3.org/2001/XMLSchema-instance" xsi:noNamespaceSchemaLocation="http://sumo.dlr.de/xsd/net_file.xsd">

    <location netOffset="0.00,0.00" convBoundary="-281.08,-271.80,308.61,282.48" origBoundary="-10000000000.00,-10000000000.00,10000000000.00,10000000000.00" projParameter="!"/>

    <edge id=":ITLS_0" function="internal">
        <lane id=":ITLS_0_0" index="0" allow="motorcycle moped bicycle" speed="8.90" length="15.09" width="3.75" shape="34.42,27.57 30.74,23.88 26.77,22.37 22.52,23.06 21.40,23.77"/>
    </edge>
    <edge id=":ITLS_1" function="internal">
        <lane id=":ITLS_1_0" index="0" allow="motorcycle moped bicycle" speed="11.11" length="67.77" width="4.00" shape="34.42,27.57 23.21,10.33 16.87,-2.95 11.07,-15.73 1.46,-31.48"/>
    </edge>
    <edge id=":ITLS_2" function="internal">
        <lane id=":ITLS_2_0" index="0" allow="motorcycle moped bicycle" speed="16.66" length="64.89" width="3.50" shape="36.03,26.38 33.07,13.28 32.19,-8.94 33.53,-30.72 35.73,-37.78"/>
    </edge>
    <edge id=":ITLS_3" function="internal">
        <lane id=":ITLS_3_0" index="0" disallow="pedestrian motorcycle moped rail_fast" speed="10.73" length="10.51" width="3.75" shape="38.82,24.32 33.57,19.12 30.63,18.07"/>
    </edge>
    <edge id=":ITLS_4" function="internal">
        <lane id=":ITLS_4_0" index="0" disallow="pedestrian motorcycle moped rail_fast" speed="11.27" length="12.22" width="3.25" shape="38.82,24.32 32.65,17.90 29.63,16.53"/>
    </edge>
    <edge id=":ITLS_5" function="internal">
        <lane id=":ITLS_5_0" index="0" disallow="pedestrian motorcycle moped bicycle rail_fast" speed="11.11" length="67.54" width="3.75" shape="38.82,24.32 27.55,7.20 21.01,-5.90 15.00,-18.51 5.30,-34.19"/>
        <lane id=":ITLS_5_1" index="1" disallow="pedestrian motorcycle moped bicycle rail_fast" speed="11.11" length="67.54" width="3.75" shape="41.48,22.36 30.27,5.21 23.88,-7.95 18.00,-20.63 8.36,-36.35"/>
    </edge>
    <edge id=":ITLS_7" function="internal">
        <lane id=":ITLS_7_0" index="0" disallow="pedestrian motorcycle moped bicycle rail_fast" speed="14.87" length="47.02" width="3.75" shape="44.13,20.40 41.32,10.23 40.80,-5.54 42.55,-20.92 44.67,-25.69"/>
    </edge>
    <edge id=":ITLS_37" function="internal">
        <lane id=":ITLS_37_0" index="0" allow="motorcycle moped bicycle" speed="8.90" length="4.04" width="3.75" shape="21.40,23.77 17.99,25.93"/>
    </edge>
    <edge id=":ITLS_38" function="internal">
        <lane id=":ITLS_38_0" index="0" allow="motorcycle moped bicycle" speed="16.66" length="4.96" width="3.50" shape="35.73,-37.78 37.21,-42.52"/>
    </edge>
    <edge id=":ITLS_39" function="internal">
        <lane id=":ITLS_39_0" index="0" disallow="pedestrian motorcycle moped rail_fast" speed="10.73" length="17.12" width="3.75" shape="30.63,18.07 27.85,17.07 21.67,18.18 15.03,22.45"/>
    </edge>
    <edge id=":ITLS_40" function="internal">
        <lane id=":ITLS_40_0" index="0" disallow="pedestrian motorcycle moped rail_fast" speed="11.27" length="18.39" width="3.25" shape="29.63,16.53 26.24,15.00 19.62,15.63 12.76,19.78"/>
    </edge>
    <edge id=":ITLS_41" function="internal">
        <lane id=":ITLS_41_0" index="0" disallow="pedestrian motorcycle moped bicycle rail_fast" speed="14.87" length="4.60" width="3.75" shape="44.67,-25.69 46.53,-29.89"/>
    </edge>
    <edge id=":ITLS_8" function="internal">
        <lane id=":ITLS_8_0" index="0" allow="motorcycle moped bicycle" speed="10.81" length="22.50" width="4.00" shape="61.25,-9.96 55.24,-4.41 52.15,1.19 51.99,6.85 52.98,8.89"/>
    </edge>
    <edge id=":ITLS_9" function="internal">
        <lane id=":ITLS_9_0" index="0" allow="motorcycle moped bicycle" speed="22.22" length="56.21" width="3.75" shape="61.25,-9.96 17.99,25.93"/>
    </edge>
    <edge id=":ITLS_10" function="internal">
        <lane id=":ITLS_10_0" index="0" allow="motorcycle moped bicycle" speed="16.48" length="60.21" width="4.00" shape="61.25,-9.96 50.03,-10.38 30.96,-16.29 12.09,-24.41 5.03,-29.11"/>
    </edge>
    <edge id=":ITLS_11" function="internal">
        <lane id=":ITLS_11_0" index="0" disallow="pedestrian motorcycle moped bicycle rail_fast" speed="12.08" length="14.84" width="3.75" shape="58.76,-13.33 51.25,-6.35 49.09,-2.31"/>
    </edge>
    <edge id=":ITLS_12" function="internal">
        <lane id=":ITLS_12_0" index="0" disallow="pedestrian motorcycle moped bicycle rail_fast" speed="12.62" length="17.48" width="3.75" shape="58.76,-13.33 49.93,-5.38 47.03,-0.59"/>
    </edge>
    <edge id=":ITLS_13" function="internal">
        <lane id=":ITLS_13_0" index="0" disallow="pedestrian motorcycle moped rail_fast" speed="22.22" length="56.90" width="3.75" shape="56.98,-15.75 43.84,-5.25 35.55,2.79 27.50,11.10 15.03,22.45"/>
        <lane id=":ITLS_13_1" index="1" disallow="pedestrian motorcycle moped rail_fast" speed="22.22" length="56.90" width="3.25" shape="56.98,-15.75 12.76,19.78"/>
        <lane id=":ITLS_13_2" index="2" disallow="pedestrian motorcycle moped rail_fast" speed="22.22" length="56.90" width="3.25" shape="55.19,-18.16 10.66,17.30"/>
        <lane id=":ITLS_13_3" index="3" disallow="pedestrian motorcycle moped rail_fast" speed="22.22" length="56.90" width="3.25" shape="53.41,-20.57 8.55,14.83"/>
    </edge>
    <edge id=":ITLS_17" function="internal">
        <lane id=":ITLS_17_0" index="0" disallow="pedestrian motorcycle moped bicycle rail_fast" speed="15.15" length="50.51" width="3.75" shape="51.63,-22.99 39.25,-16.68 27.41,-16.44 16.09,-22.28 8.00,-31.20"/>
    </edge>
    <edge id=":ITLS_18" function="internal">
        <lane id=":ITLS_18_0" index="0" disallow="pedestrian motorcycle moped bicycle rail_fast" speed="14.38" length="45.01" width="3.75" shape="49.85,-25.40 38.93,-19.93 28.37,-19.93 18.18,-25.40 11.05,-33.35"/>
    </edge>
    <edge id=":ITLS_42" function="internal">
        <lane id=":ITLS_42_0" index="0" allow="motorcycle moped bicycle" speed="10.81" length="4.07" width="4.00" shape="52.98,8.89 54.76,12.55"/>
    </edge>
    <edge id=":ITLS_43" function="internal">
        <lane id=":ITLS_43_0" index="0" allow="motorcycle moped bicycle" speed="16.48" length="4.29" width="4.00" shape="5.03,-29.11 1.46,-31.48"/>
    </edge>
    <edge id=":ITLS_44" function="internal">
        <lane id=":ITLS_44_0" index="0" disallow="pedestrian motorcycle moped bicycle rail_fast" speed="12.08" length="18.90" width="3.75" shape="49.09,-2.31 47.45,0.76 47.36,7.99 50.98,15.34"/>
    </edge>
    <edge id=":ITLS_45" function="internal">
        <lane id=":ITLS_45_0" index="0" disallow="pedestrian motorcycle moped bicycle rail_fast" speed="12.62" length="19.45" width="3.75" shape="47.03,-0.59 45.19,2.43 44.53,10.08 47.97,17.57"/>
    </edge>
    <edge id=":ITLS_46" function="internal">
        <lane id=":ITLS_46_0" index="0" disallow="pedestrian motorcycle moped bicycle rail_fast" speed="15.15" length="4.03" width="3.75" shape="8.00,-31.20 5.30,-34.19"/>
    </edge>
    <edge id=":ITLS_47" function="internal">
        <lane id=":ITLS_47_0" index="0" disallow="pedestrian motorcycle moped bicycle rail_fast" speed="14.38" length="4.03" width="3.75" shape="11.05,-33.35 8.36,-36.35"/>
    </edge>
    <edge id=":ITLS_19" function="internal">
        <lane id=":ITLS_19_0" index="0" allow="motorcycle moped bicycle" speed="8.94" length="14.64" width="3.50" shape="21.17,-45.37 24.72,-41.56 28.58,-39.82 32.74,-40.14 33.64,-40.61"/>
    </edge>
    <edge id=":ITLS_20" function="internal">
        <lane id=":ITLS_20_0" index="0" allow="motorcycle moped bicycle" speed="11.11" length="66.96" width="4.00" shape="21.17,-45.37 54.76,12.55"/>
    </edge>
    <edge id=":ITLS_21" function="internal">
        <lane id=":ITLS_21_0" index="0" allow="motorcycle moped bicycle" speed="16.66" length="66.19" width="3.75" shape="19.54,-44.22 22.30,-30.91 22.95,-8.34 21.50,13.83 19.32,21.33"/>
    </edge>
    <edge id=":ITLS_22" function="internal">
        <lane id=":ITLS_22_0" index="0" disallow="pedestrian motorcycle moped bicycle rail_fast" speed="10.69" length="9.92" width="3.75" shape="16.82,-42.31 21.79,-37.07 24.28,-36.02"/>
    </edge>
    <edge id=":ITLS_23" function="internal">
        <lane id=":ITLS_23_0" index="0" disallow="pedestrian motorcycle moped bicycle rail_fast" speed="11.27" length="11.63" width="3.75" shape="16.82,-42.31 22.74,-35.73 25.20,-34.43"/>
    </edge>
    <edge id=":ITLS_24" function="internal">
        <lane id=":ITLS_24_0" index="0" disallow="pedestrian motorcycle moped bicycle rail_fast" speed="11.11" length="67.13" width="3.75" shape="16.82,-42.31 50.98,15.34"/>
        <lane id=":ITLS_24_1" index="1" disallow="pedestrian motorcycle moped bicycle rail_fast" speed="11.11" length="67.13" width="3.75" shape="14.37,-40.58 25.25,-23.29 31.72,-10.25 37.91,2.17 47.97,17.57"/>
    </edge>
    <edge id=":ITLS_26" function="internal">
        <lane id=":ITLS_26_0" index="0" disallow="pedestrian motorcycle moped rail_fast" speed="15.88" length="50.36" width="3.25" shape="11.92,-38.85 14.44,-28.16 14.54,-11.31 12.49,5.18 10.26,10.65"/>
    </edge>
    <edge id=":ITLS_48" function="internal">
        <lane id=":ITLS_48_0" index="0" allow="motorcycle moped bicycle" speed="8.94" length="4.04" width="3.50" shape="33.64,-40.61 37.21,-42.52"/>
    </edge>
    <edge id=":ITLS_49" function="internal">
        <lane id=":ITLS_49_0" index="0" allow="motorcycle moped bicycle" speed="16.66" length="4.80" width="3.75" shape="19.32,21.33 17.99,25.93"/>
    </edge>
    <edge id=":ITLS_50" function="internal">
        <lane id=":ITLS_50_0" index="0" disallow="pedestrian motorcycle moped bicycle rail_fast" speed="10.69" length="16.76" width="3.75" shape="24.28,-36.02 27.29,-34.76 33.31,-35.38 39.85,-38.94"/>
    </edge>
    <edge id=":ITLS_51" function="internal">
        <lane id=":ITLS_51_0" index="0" disallow="pedestrian motorcycle moped bicycle rail_fast" speed="11.27" length="18.17" width="3.75" shape="25.20,-34.43 28.92,-32.47 35.37,-32.53 42.08,-35.92"/>
    </edge>
    <edge id=":ITLS_52" function="internal">
        <lane id=":ITLS_52_0" index="0" disallow="pedestrian motorcycle moped rail_fast" speed="15.88" length="4.51" width="3.25" shape="10.26,10.65 8.55,14.83"/>
    </edge>
    <edge id=":ITLS_27" function="internal">
        <lane id=":ITLS_27_0" index="0" allow="motorcycle moped bicycle" speed="12.64" length="30.17" width="4.00" shape="-5.38,-1.57 1.60,-9.00 5.06,-16.47 5.01,-23.96 3.19,-27.81"/>
    </edge>
    <edge id=":ITLS_28" function="internal">
        <lane id=":ITLS_28_0" index="0" allow="motorcycle moped bicycle" speed="22.22" length="59.08" width="3.50" shape="-5.38,-1.57 37.21,-42.52"/>
    </edge>
    <edge id=":ITLS_29" function="internal">
        <lane id=":ITLS_29_0" index="0" allow="motorcycle moped bicycle" speed="16.02" length="58.57" width="4.00" shape="-5.38,-1.57 6.06,-2.74 25.18,0.71 44.06,6.54 50.94,10.40"/>
    </edge>
    <edge id=":ITLS_30" function="internal">
        <lane id=":ITLS_30_0" index="0" disallow="pedestrian motorcycle moped bicycle rail_fast" speed="13.75" length="17.02" width="3.75" shape="-2.66,1.62 5.62,-7.23 7.66,-11.68"/>
    </edge>
    <edge id=":ITLS_31" function="internal">
        <lane id=":ITLS_31_0" index="0" disallow="pedestrian motorcycle moped bicycle rail_fast" speed="14.23" length="19.77" width="3.75" shape="-2.66,1.62 6.89,-8.28 9.67,-13.61"/>
    </edge>
    <edge id=":ITLS_32" function="internal">
        <lane id=":ITLS_32_0" index="0" disallow="pedestrian motorcycle moped bicycle rail_fast" speed="22.22" length="58.33" width="3.75" shape="-2.66,1.62 39.85,-38.94"/>
        <lane id=":ITLS_32_1" index="1" disallow="pedestrian motorcycle moped bicycle rail_fast" speed="22.22" length="58.33" width="3.75" shape="-0.72,3.91 42.08,-35.92"/>
        <lane id=":ITLS_32_2" index="2" disallow="pedestrian motorcycle moped bicycle rail_fast" speed="22.22" length="58.33" width="3.75" shape="1.22,6.20 44.31,-32.91"/>
        <lane id=":ITLS_32_3" index="3" disallow="pedestrian motorcycle moped bicycle rail_fast" speed="22.22" length="58.33" width="3.75" shape="3.16,8.48 46.53,-29.89"/>
    </edge>
    <edge id=":ITLS_36" function="internal">
        <lane id=":ITLS_36_0" index="0" disallow="pedestrian motorcycle moped bicycle rail_fast" speed="14.31" length="46.23" width="3.75" shape="5.11,10.77 16.51,3.79 27.45,2.59 37.94,7.19 45.16,14.67"/>
    </edge>
    <edge id=":ITLS_53" function="internal">
        <lane id=":ITLS_53_0" index="0" allow="motorcycle moped bicycle" speed="12.64" length="4.06" width="4.00" shape="3.19,-27.81 1.46,-31.48"/>
    </edge>
    <edge id=":ITLS_54" function="internal">
        <lane id=":ITLS_54_0" index="0" allow="motorcycle moped bicycle" speed="16.02" length="4.39" width="4.00" shape="50.94,10.40 54.76,12.55"/>
    </edge>
    <edge id=":ITLS_55" function="internal">
        <lane id=":ITLS_55_0" index="0" disallow="pedestrian motorcycle moped bicycle rail_fast" speed="13.75" length="23.92" width="3.75" shape="7.66,-11.68 9.71,-16.15 9.60,-25.13 5.30,-34.19"/>
    </edge>
    <edge id=":ITLS_56" function="internal">
        <lane id=":ITLS_56_0" index="0" disallow="pedestrian motorcycle moped bicycle rail_fast" speed="14.23" length="24.15" width="3.75" shape="9.67,-13.61 11.91,-17.91 12.40,-27.26 8.36,-36.35"/>
    </edge>
    <edge id=":ITLS_57" function="internal">
        <lane id=":ITLS_57_0" index="0" disallow="pedestrian motorcycle moped bicycle rail_fast" speed="14.31" length="4.03" width="3.75" shape="45.16,14.67 47.97,17.57"/>
    </edge>
    <edge id=":ITLS_c0" function="crossing" crossingEdges="JSNX JSNE">
        <lane id=":ITLS_c0_0" index="0" allow="pedestrian" speed="1.00" length="28.28" width="4.00" shape="55.18,9.76 32.43,26.56"/>
    </edge>
    <edge id=":ITLS_c1" function="crossing" crossingEdges="CAEX CAEE">
        <lane id=":ITLS_c1_0" index="0" allow="pedestrian" speed="1.00" length="44.10" width="4.00" shape="34.56,-42.74 60.75,-7.26"/>
    </edge>
    <edge id=":ITLS_c2" function="crossing" crossingEdges="JSSX JSSE">
        <lane id=":ITLS_c2_0" index="0" allow="pedestrian" speed="1.00" length="27.11" width="4.00" shape="0.97,-28.70 23.14,-44.31"/>
    </edge>
    <edge id=":ITLS_c3" function="crossing" crossingEdges="CAWX CAWE">
        <lane id=":ITLS_c3_0" index="0" allow="pedestrian" speed="1.00" length="39.84" width="4.00" shape="20.72,26.07 -5.07,-4.30"/>
    </edge>
    <edge id=":ITLS_w0" function="walkingarea">
        <lane id=":ITLS_w0_0" index="0" allow="pedestrian" speed="1.00" length="9.02" width="4.00" shape="19.20,27.36 20.37,28.73 31.69,29.59 33.62,28.16 31.57,25.92 29.38,24.51 27.05,23.96 24.57,24.25 21.96,25.38"/>
    </edge>
    <edge id=":ITLS_w1" function="walkingarea">
        <lane id=":ITLS_w1_0" index="0" allow="pedestrian" speed="1.00" length="13.11" width="4.00" shape="56.37,11.36 58.30,9.94 64.14,-6.04 62.36,-8.45 58.49,-5.16 55.77,-1.87 54.19,1.43 53.77,4.74 54.49,8.05"/>
    </edge>
    <edge id=":ITLS_w2" function="walkingarea">
        <lane id=":ITLS_w2_0" index="0" allow="pedestrian" speed="1.00" length="8.92" width="4.00" shape="36.17,-43.92 34.98,-45.53 23.95,-47.33 21.99,-45.95 23.99,-43.60 26.13,-42.06 28.42,-41.33 30.86,-41.39 33.44,-42.26"/>
    </edge>
    <edge id=":ITLS_w3" function="walkingarea">
        <lane id=":ITLS_w3_0" index="0" allow="pedestrian" speed="1.00" length="18.04" width="4.00" shape="-0.18,-30.33 -2.14,-28.95 -7.76,-4.38 -6.59,-3.00 -1.95,-7.55 1.26,-12.10 3.04,-16.66 3.40,-21.21 2.32,-25.77"/>
    </edge>
    <edge id=":gneJ19_w0" function="walkingarea">
        <lane id=":gneJ19_w0_0" index="0" allow="pedestrian" speed="1.00" length="42.75" width="2.00" shape="313.94,-178.39 314.99,-176.68 291.65,-214.75 292.59,-213.22"/>
    </edge>
    <edge id=":gneJ20_0" function="internal">
        <lane id=":gneJ20_0_0" index="0" allow="motorcycle moped bicycle" speed="22.22" length="43.87" width="3.75" shape="177.71,-99.13 167.30,-91.93 160.89,-86.02 154.67,-79.83 144.85,-71.76"/>
        <lane id=":gneJ20_0_1" index="1" disallow="pedestrian motorcycle moped bicycle rail_fast" speed="22.22" length="43.87" width="3.00" shape="174.47,-104.41 164.09,-96.86 158.02,-90.36 152.14,-83.56 142.36,-75.13"/>
        <lane id=":gneJ20_0_2" index="2" disallow="pedestrian motorcycle moped bicycle rail_fast" speed="22.22" length="43.87" width="3.00" shape="172.51,-107.60 162.11,-99.91 156.14,-93.17 150.37,-86.13 140.57,-77.54"/>
        <lane id=":gneJ20_0_3" index="3" disallow="pedestrian motorcycle moped bicycle rail_fast" speed="22.22" length="43.87" width="3.00" shape="170.55,-110.80 160.12,-102.95 154.26,-95.98 148.61,-88.70 138.79,-79.96"/>
        <lane id=":gneJ20_0_4" index="4" disallow="pedestrian motorcycle moped bicycle rail_fast" speed="22.22" length="43.87" width="3.00" shape="170.55,-110.80 159.88,-103.35 153.38,-97.18 147.07,-90.71 137.01,-82.37"/>
        <lane id=":gneJ20_0_5" index="5" disallow="pedestrian motorcycle moped bicycle rail_fast" speed="22.22" length="43.87" width="3.00" shape="170.55,-110.80 159.62,-103.74 152.48,-98.39 145.55,-92.74 135.22,-84.78"/>
        <lane id=":gneJ20_0_6" index="6" disallow="pedestrian motorcycle moped bicycle rail_fast" speed="22.22" length="43.87" width="3.00" shape="170.55,-110.80 159.32,-104.11 151.59,-99.59 144.06,-94.78 133.44,-87.19"/>
    </edge>
    <edge id=":gneJ20_7" function="internal">
        <lane id=":gneJ20_7_0" index="0" allow="motorcycle moped bicycle" speed="22.22" length="45.12" width="3.75" shape="120.83,-104.25 159.26,-129.19"/>
        <lane id=":gneJ20_7_1" index="1" disallow="pedestrian motorcycle moped bicycle rail_fast" speed="22.22" length="45.12" width="3.75" shape="123.47,-100.68 161.65,-125.30"/>
        <lane id=":gneJ20_7_2" index="2" disallow="pedestrian motorcycle moped bicycle rail_fast" speed="22.22" length="45.12" width="3.75" shape="125.70,-97.66 163.61,-122.10"/>
        <lane id=":gneJ20_7_3" index="3" disallow="pedestrian motorcycle moped bicycle rail_fast" speed="22.22" length="45.12" width="3.75" shape="127.93,-94.64 165.58,-118.90"/>
        <lane id=":gneJ20_7_4" index="4" disallow="pedestrian motorcycle moped bicycle rail_fast" speed="22.22" length="45.12" width="3.75" shape="130.16,-91.63 167.54,-115.71"/>
    </edge>
    <edge id=":gneJ20_w0" function="walkingarea">
        <lane id=":gneJ20_w0_0" index="0" allow="pedestrian" speed="1.00" length="42.33" width="3.00" shape="145.96,-70.25 147.75,-67.84 180.59,-94.44 179.54,-96.14 171.96,-91.26 166.59,-87.31 162.36,-83.77 158.23,-80.10 153.11,-75.77"/>
    </edge>
    <edge id=":gneJ20_w1" function="walkingarea">
        <lane id=":gneJ20_w1_0" index="0" allow="pedestrian" speed="1.00" length="46.05" width="2.00" shape="158.28,-130.79 157.34,-132.32 118.60,-107.27 119.79,-105.66"/>
    </edge>
    <edge id=":gneJ22_0" function="internal">
        <lane id=":gneJ22_0_0" index="0" allow="motorcycle moped bicycle" speed="22.22" length="8.08" width="3.25" shape="-78.54,107.92 -84.40,113.55"/>
        <lane id=":gneJ22_0_1" index="1" disallow="pedestrian motorcycle moped bicycle rail_fast" speed="22.22" length="8.08" width="3.75" shape="-81.50,104.44 -83.26,106.09 -84.33,107.35 -85.42,108.61 -87.18,110.24"/>
        <lane id=":gneJ22_0_2" index="2" disallow="pedestrian motorcycle moped bicycle rail_fast" speed="22.22" length="8.08" width="3.75" shape="-83.77,101.77 -89.59,107.37"/>
        <lane id=":gneJ22_0_3" index="3" disallow="pedestrian motorcycle moped bicycle rail_fast" speed="22.22" length="8.08" width="3.75" shape="-85.87,99.30 -92.00,104.50"/>
        <lane id=":gneJ22_0_4" index="4" disallow="pedestrian motorcycle moped bicycle rail_fast" speed="22.22" length="8.08" width="3.75" shape="-87.97,96.82 -94.41,101.63"/>
    </edge>
    <edge id=":gneJ22_5" function="internal">
        <lane id=":gneJ22_5_0" index="0" allow="motorcycle moped bicycle" speed="22.22" length="8.29" width="3.75" shape="-108.31,85.47 -108.12,85.31 -101.90,80.42"/>
        <lane id=":gneJ22_5_1" index="1" disallow="pedestrian motorcycle moped bicycle rail_fast" speed="22.22" length="8.29" width="3.00" shape="-105.46,88.47 -99.19,83.62"/>
        <lane id=":gneJ22_5_2" index="2" disallow="pedestrian motorcycle moped bicycle rail_fast" speed="22.22" length="8.29" width="3.00" shape="-105.46,88.47 -103.25,87.29 -101.35,87.19 -99.45,87.09 -97.25,85.90"/>
        <lane id=":gneJ22_5_3" index="3" disallow="pedestrian motorcycle moped bicycle rail_fast" speed="22.22" length="8.29" width="3.00" shape="-103.05,91.34 -100.94,90.10 -99.17,89.77 -97.41,89.45 -95.30,88.19"/>
        <lane id=":gneJ22_5_4" index="4" disallow="pedestrian motorcycle moped bicycle rail_fast" speed="22.22" length="8.29" width="3.00" shape="-100.64,94.21 -98.62,92.89 -97.00,92.35 -95.37,91.81 -93.36,90.48"/>
        <lane id=":gneJ22_5_5" index="5" disallow="pedestrian motorcycle moped bicycle rail_fast" speed="22.22" length="8.29" width="3.00" shape="-98.23,97.09 -96.29,95.68 -94.82,94.93 -93.35,94.17 -91.42,92.76"/>
    </edge>
    <edge id=":gneJ22_w0" function="walkingarea">
        <lane id=":gneJ22_w0_0" index="0" allow="pedestrian" speed="1.00" length="8.13" width="1.80" shape="-83.36,114.80 -82.20,116.17 -76.16,110.72 -77.33,109.35"/>
    </edge>
    <edge id=":gneJ22_w1" function="walkingarea">
        <lane id=":gneJ22_w1_0" index="0" allow="pedestrian" speed="1.00" length="7.89" width="1.80" shape="-103.12,78.99 -104.28,77.62 -110.40,82.59 -109.24,83.97"/>
    </edge>
    <edge id=":gneJ23_w0" function="walkingarea">
        <lane id=":gneJ23_w0_0" index="0" allow="pedestrian" speed="1.00" length="42.07" width="1.80" shape="-293.25,245.03 -294.44,243.68 -265.24,276.42 -266.44,275.08"/>
    </edge>
    <edge id=":gneJ24_0" function="internal">
        <lane id=":gneJ24_0_0" index="0" allow="motorcycle moped bicycle" speed="11.11" length="35.50" width="2.00" shape="100.65,114.48 78.44,86.98"/>
        <lane id=":gneJ24_0_1" index="1" allow="motorcycle moped bicycle" speed="11.11" length="35.50" width="2.00" shape="100.65,114.48 80.05,85.79"/>
        <lane id=":gneJ24_0_2" index="2" disallow="pedestrian rail_fast" speed="11.11" length="35.50" width="3.30" shape="104.42,111.90 82.84,83.72"/>
        <lane id=":gneJ24_0_3" index="3" disallow="pedestrian rail_fast" speed="11.11" length="35.50" width="3.30" shape="107.31,109.93 85.49,81.76"/>
        <lane id=":gneJ24_0_4" index="4" disallow="pedestrian rail_fast" speed="11.11" length="35.50" width="3.30" shape="107.31,109.93 88.14,79.80"/>
    </edge>
    <edge id=":gneJ24_5" function="internal">
        <lane id=":gneJ24_5_0" index="0" allow="motorcycle moped bicycle" speed="11.11" length="36.02" width="3.50" shape="98.68,72.03 119.76,101.43"/>
        <lane id=":gneJ24_5_1" index="1" disallow="pedestrian motorcycle moped bicycle rail_fast" speed="11.11" length="36.02" width="3.75" shape="94.91,74.82 116.09,103.93"/>
        <lane id=":gneJ24_5_2" index="2" disallow="pedestrian motorcycle moped bicycle rail_fast" speed="11.11" length="36.02" width="3.75" shape="91.89,77.05 113.00,106.05"/>
    </edge>
    <edge id=":gneJ24_w0" function="walkingarea">
        <lane id=":gneJ24_w0_0" index="0" allow="pedestrian" speed="1.00" length="35.20" width="2.40" shape="77.64,87.58 75.71,89.00 97.02,116.96 99.00,115.61"/>
    </edge>
    <edge id=":gneJ24_w1" function="walkingarea">
        <lane id=":gneJ24_w1_0" index="0" allow="pedestrian" speed="1.00" length="36.29" width="2.40" shape="121.21,100.44 123.19,99.09 102.22,69.42 100.29,70.85"/>
    </edge>
    <edge id=":gneJ25_w0" function="walkingarea">
        <lane id=":gneJ25_w0_0" index="0" allow="pedestrian" speed="1.00" length="29.24" width="2.40" shape="218.05,290.20 216.07,291.55 242.22,273.74 240.23,275.09"/>
    </edge>
    <edge id=":gneJ26_0" function="internal">
        <lane id=":gneJ26_0_0" index="0" allow="motorcycle moped bicycle" speed="11.11" length="12.28" width="4.00" shape="-42.39,-93.72 -50.06,-103.35"/>
        <lane id=":gneJ26_0_1" index="1" disallow="pedestrian motorcycle moped bicycle rail_fast" speed="11.11" length="12.28" width="3.75" shape="-38.54,-96.42 -46.06,-106.13"/>
        <lane id=":gneJ26_0_2" index="2" disallow="pedestrian motorcycle moped bicycle rail_fast" speed="11.11" length="12.28" width="3.75" shape="-35.48,-98.58 -42.98,-108.27"/>
    </edge>
    <edge id=":gneJ26_3" function="internal">
        <lane id=":gneJ26_3_0" index="0" allow="motorcycle moped bicycle" speed="11.11" length="12.26" width="2.00" shape="-30.35,-117.05 -22.57,-107.64"/>
        <lane id=":gneJ26_3_1" index="1" allow="motorcycle moped bicycle" speed="11.11" length="12.26" width="2.00" shape="-30.35,-117.05 -24.21,-106.49"/>
        <lane id=":gneJ26_3_2" index="2" disallow="pedestrian motorcycle moped bicycle rail_fast" speed="11.11" length="12.26" width="3.00" shape="-34.21,-114.37 -26.92,-104.58"/>
        <lane id=":gneJ26_3_3" index="3" disallow="pedestrian motorcycle moped bicycle rail_fast" speed="11.11" length="12.26" width="3.00" shape="-37.29,-112.23 -35.07,-109.35 -33.34,-107.54 -31.61,-105.73 -29.38,-102.86"/>
        <lane id=":gneJ26_3_4" index="4" disallow="pedestrian motorcycle moped bicycle rail_fast" speed="11.11" length="12.26" width="3.00" shape="-37.29,-112.23 -35.45,-109.07 -34.57,-106.68 -33.69,-104.29 -31.83,-101.13"/>
    </edge>
    <edge id=":gneJ26_w0" function="walkingarea">
        <lane id=":gneJ26_w0_0" index="0" allow="pedestrian" speed="1.00" length="12.33" width="2.40" shape="-51.70,-102.21 -53.67,-100.84 -45.99,-91.19 -44.02,-92.57"/>
    </edge>
    <edge id=":gneJ26_w1" function="walkingarea">
        <lane id=":gneJ26_w1_0" index="0" allow="pedestrian" speed="1.00" length="12.16" width="2.40" shape="-21.75,-108.22 -19.79,-109.60 -26.74,-119.56 -28.71,-118.19"/>
    </edge>
    <edge id=":gneJ27_w0" function="walkingarea">
        <lane id=":gneJ27_w0_0" index="0" allow="pedestrian" speed="1.00" length="30.38" width="2.40" shape="-129.18,-275.49 -127.14,-276.77 -154.94,-259.40 -152.90,-260.67"/>
    </edge>

    <edge id="CAED" from="gneJ20" to="gneJ19" priority="-1" spreadType="center" shape="163.19,-122.79 297.60,-205.28">
        <lane id="CAED_0" index="0" allow="pedestrian" speed="22.22" length="157.59" width="1.80" shape="157.81,-131.56 292.12,-213.99"/>
        <lane id="CAED_1" index="1" allow="motorcycle moped bicycle" speed="22.22" length="157.59" width="3.75" shape="159.26,-129.19 293.57,-211.62"/>
        <lane id="CAED_2" index="2" disallow="all" speed="22.22" length="157.59" width="0.82" shape="160.46,-127.24 294.77,-209.67"/>
        <lane id="CAED_3" index="3" disallow="pedestrian motorcycle moped bicycle rail_fast" speed="22.22" length="157.59" width="3.75" shape="161.65,-125.30 295.96,-207.72"/>
        <lane id="CAED_4" index="4" disallow="pedestrian motorcycle moped bicycle rail_fast" speed="22.22" length="157.59" width="3.75" shape="163.61,-122.10 297.92,-204.53"/>
        <lane id="CAED_5" index="5" disallow="pedestrian motorcycle moped bicycle rail_fast" speed="22.22" length="157.59" width="3.75" shape="165.58,-118.90 299.88,-201.33"/>
        <lane id="CAED_6" index="6" disallow="pedestrian motorcycle moped bicycle rail_fast" speed="22.22" length="157.59" width="3.75" shape="167.54,-115.71 301.84,-198.13"/>
        <lane id="CAED_7" index="7" disallow="all" speed="22.22" length="157.59" width="1.00" shape="168.78,-113.68 303.08,-196.11"/>
    </edge>
    <edge id="CAEE" from="gneJ20" to="ITLS" priority="-1" spreadType="center" shape="139.85,-78.52 53.88,-14.97">
        <lane id="CAEE_0" index="0" allow="pedestrian" speed="22.22" length="103.96" width="3.00" shape="146.86,-69.04 63.25,-7.24"/>
        <lane id="CAEE_1" index="1" allow="motorcycle moped bicycle" speed="22.22" length="103.96" width="3.75" shape="144.85,-71.76 61.25,-9.96"/>
        <lane id="CAEE_2" index="2" disallow="all" speed="22.22" length="103.96" width="0.82" shape="143.49,-73.59 59.89,-11.80"/>
        <lane id="CAEE_3" index="3" disallow="pedestrian motorcycle moped bicycle rail_fast" speed="22.22" length="103.96" width="3.00" shape="142.36,-75.13 58.76,-13.33"/>
        <lane id="CAEE_4" index="4" disallow="pedestrian motorcycle moped bicycle rail_fast" speed="22.22" length="103.96" width="3.00" shape="140.57,-77.54 56.98,-15.75"/>
        <lane id="CAEE_5" index="5" disallow="pedestrian motorcycle moped bicycle rail_fast" speed="22.22" length="103.96" width="3.00" shape="138.79,-79.96 55.19,-18.16"/>