<routes>
    <vTypeDistribution id="LT">
        <vType id="LLT" vClass="trailer"   carFollowModel="IDM" probability="0.08" speedFactor="normc(1,0.1,0.2,2)"/>
        <vType id="RLT" vClass="truck"   carFollowModel="IDM" probability="0.92" speedFactor="normc(1,0.1,0.2,2)"/>
    </vTypeDistribution>    
    <vType id="MT" vClass="delivery"   carFollowModel="IDM" speedFactor="normc(1,0.1,0.2,2)"/>
    <vType id="T" vClass="delivery"   carFollowModel="IDM" speedFactor="normc(1,0.1,0.2,2)"/>
    <vType id="LP" vClass="coach"   carFollowModel="IDM" speedFactor="normc(1,0.1,0.2,2)"/>
    <vType id="MP" vClass="bus"   carFollowModel="IDM" speedFactor="normc(1,0.1,0.2,2)"/>
    <vType id="P" vClass="passenger"   carFollowModel="IDM" speedFactor="normc(1,0.1,0.2,2)"/>
    <vType id="PED" vClass="pedestrian" speedFactor="normc(1,0.1,0.2,2)"/>
    <vTypeDistribution id="NMV">
        <vType id="MOTOR" vClass="motorcycle" probability="0.04" lcPushy="0.05" speedFactor="normc(1,0.1,0.2,2)"/>
        <vType id="MOP" vClass="moped" probability="0.76" lcPushy="0.07" speedFactor="normc(1,0.1,0.2,2)"/>
        <vType id="BYC" vClass="bicycle" probability="0.2" lcPushy="0.03" speedFactor="normc(1,0.1,0.2,2)"/>
    </vTypeDistribution>
    
    <route id="WtoE" edges="CAWU CAWE CAEX CAED"/>
    <route id="EtoW" edges="CAEU CAEE CAWX CAWD"/>
    <route id="WtoN" edges="CAWU CAWE JSNX JSND"/>
    <route id="EtoS" edges="CAEU CAEE JSSX JSSD"/>
    <route id="WtoS" edges="CAWU CAWE JSSX JSSD"/>
    <route id="EtoN" edges="CAEU CAEE JSNX JSND"/>
    <route id="NtoS" edges="JSNU JSNE JSSX JSSD"/>
    <route id="StoN" edges="JSSU JSSE JSNX JSND"/>
    <route id="NtoE" edges="JSNU JSNE CAEX CAED"/>
    <route id="StoW" edges="JSSU JSSE CAWX CAWD"/>
    <route id="NtoW" edges="JSNU JSNE CAWX CAWD"/>
    <route id="StoE" edges="JSSU JSSE CAEX CAED"/>

    <flow begin="0"    end="3600"  departPos="0" id="WE_LT" departSpeed="random" vehsPerHour="28"  route="WtoE" type="LT"/>
    <flow begin="0"    end="3600"  departPos="0" id="WE_MT" departSpeed="random" vehsPerHour="18"  route="WtoE" type="MT"/>
    <flow begin="0"    end="3600"  departPos="0" id="WE_T" departSpeed="random" vehsPerHour="4"  route="WtoE" type="T"/>
    <flow begin="0"    end="3600"  departPos="0" id="WE_LP" departSpeed="random" vehsPerHour="34"  route="WtoE" type="LP"/>
    <flow begin="0"    end="3600"  departPos="0" id="WE_MP" departSpeed="random" vehsPerHour="15"  route="WtoE" type="MP"/>
    <flow begin="0"    end="3600"  departPos="0" id="WE_P" departSpeed="random" vehsPerHour="511"  route="WtoE" type="P"/>
    <flow begin="0"    end="3600"  departPos="0" id="WE_NMV" departSpeed="random" vehsPerHour="183"  route="WtoE" type="NMV"/>
    <!--<flow begin="0"    end="3600"  departPos="0" id="WE_PED" departSpeed="random" vehsPerHour="27"  route="WtoE" type="PED"/>-->
    <personFlow id="WE_PED" begin="0" end="3600" personsPerHour="27" type="PED">
        <walk route="WtoE"/>
    </personFlow>

    <flow begin="0"    end="3600"  departPos="0" id="WN_LT" departSpeed="random" vehsPerHour="6"  route="WtoN" type="LT"/>
    <flow begin="0"    end="3600"  departPos="0" id="WN_MT" departSpeed="random" vehsPerHour="7"  route="WtoN" type="MT"/>
    <flow begin="0"    end="3600"  departPos="0" id="WN_T" departSpeed="random" vehsPerHour="2"  route="WtoN" type="T"/>
    <flow begin="0"    end="3600"  departPos="0" id="WN_LP" departSpeed="random" vehsPerHour="4"  route="WtoN" type="LP"/>
    <flow begin="0"    end="3600"  departPos="0" id="WN_MP" departSpeed="random" vehsPerHour="14"  route="WtoN" type="MP"/>
    <flow begin="0"    end="3600"  departPos="0" id="WN_P" departSpeed="random" vehsPerHour="322"  route="WtoN" type="P"/>
    <flow begin="0"    end="3600"  departPos="0" id="WN_NMV" departSpeed="random" vehsPerHour="26"  route="WtoN" type="NMV"/>
    <!--<flow begin="0"    end="3600"  departPos="0" id="WN_PED" departSpeed="random" vehsPerHour="13"  route="WtoN" type="PED"/>-->
    <personFlow id="WN_PED" begin="0" end="3600" personsPerHour="13" type="PED">
        <walk route="WtoN"/>
    </personFlow>

    <flow begin="0"    end="3600"  departPos="0" id="WS_LT" departSpeed="random" vehsPerHour="3"  route="WtoS" type="LT"/>
    <flow begin="0"    end="3600"  departPos="0" id="WS_MT" departSpeed="random" vehsPerHour="1"  route="WtoS" type="MT"/>
    <flow begin="0"    end="3600"  departPos="0" id="WS_P" departSpeed="random" vehsPerHour="32"  route="WtoS" type="P"/>
    <flow begin="0"    end="3600"  departPos="0" id="WS_NMV" departSpeed="random" vehsPerHour="6"  route="WtoS" type="NMV"/>
    <!--<flow begin="0"    end="3600"  departPos="0" id="WS_PED" departSpeed="random" vehsPerHour="30"  route="WtoS" type="PED"/>-->
    <personFlow id="WS_PED" begin="0" end="3600" personsPerHour="30" type="PED">
        <walk route="WtoN"/>
    </personFlow>

    <flow begin="0"    end="3600"  departPos="0" id="EW_LT" departSpeed="random" vehsPerHour="23"  route="EtoW" type="LT"/>
    <flow begin="0"    end="3600"  departPos="0" id="EW_MT" departSpeed="random" vehsPerHour="15"  route="EtoW" type="MT"/>
    <flow begin="0"    end="3600"  departPos="0" id="EW_T" departSpeed="random" vehsPerHour="18"  route="EtoW" type="T"/>
    <flow begin="0"    end="3600"  departPos="0" id="EW_LP" departSpeed="random" vehsPerHour="17"  route="EtoW" type="LP"/>
    <flow begin="0"    end="3600"  departPos="0" id="EW_MP" departSpeed="random" vehsPerHour="38"  route="EtoW" type="MP"/>
    <flow begin="0"    end="3600"  departPos="0" id="EW_P" departSpeed="random" vehsPerHour="429"  route="EtoW" type="P"/>
    <flow begin="0"    end="3600"  departPos="0" id="EW_NMV" departSpeed="random" vehsPerHour="255"  route="EtoW" type="NMV"/>
    <!--<flow begin="0"    end="3600"  departPos="0" id="EW_PED" departSpeed="random" vehsPerHour="17"  route="EtoW" type="PED"/>-->
    <personFlow id="EW_PED" begin="0" end="3600" personsPerHour="20" type="PED">
        <walk route="EtoW"/>
    </personFlow>

    <flow begin="0"    end="3600"  departPos="0" id="EN_LT" departSpeed="random" vehsPerHour="23"  route="EtoN" type="LT"/>
    <flow begin="0"    end="3600"  departPos="0" id="EN_MT" departSpeed="random" vehsPerHour="25"  route="EtoN" type="MT"/>
    <flow begin="0"    end="3600"  departPos="0" id="EN_T" departSpeed="random" vehsPerHour="1"  route="EtoN" type="T"/>
    <flow begin="0"    end="3600"  departPos="0" id="EN_LP" departSpeed="random" vehsPerHour="4"  route="EtoN" type="LP"/>
    <flow begin="0"    end="3600"  departPos="0" id="EN_MP" departSpeed="random" vehsPerHour="24"  route="EtoN" type="MP"/>
    <flow begin="0"    end="3600"  departPos="0" id="EN_P" departSpeed="random" vehsPerHour="185"  route="EtoN" type="P"/>
    <flow begin="0"    end="3600"  departPos="0" id="EN_NMV" departSpeed="random" vehsPerHour="45"  route="EtoN" type="NMV"/>
    <!--<flow begin="0"    end="3600"  departPos="0" id="EW_PED" departSpeed="random" vehsPerHour="17"  route="EtoW" type="PED"/>-->
    <personFlow id="EN_PED" begin="0" end="3600" personsPerHour="48" type="PED">
        <walk route="EtoN"/>
    </personFlow>

    <flow begin="0"    end="3600"  departPos="0" id="ES_LT" departSpeed="random" vehsPerHour="8"  route="EtoS" type="LT"/>
    <flow begin="0"    end="3600"  departPos="0" id="ES_MT" departSpeed="random" vehsPerHour="18"  route="EtoS" type="MT"/>
    <flow begin="0"    end="3600"  departPos="0" id="ES_T" departSpeed="random" vehsPerHour="4"  route="EtoS" type="T"/>
    <flow begin="0"    end="3600"  departPos="0" id="ES_LP" departSpeed="random" vehsPerHour="1"  route="EtoS" type="LP"/>
    <flow begin="0"    end="3600"  departPos="0" id="ES_MP" departSpeed="random" vehsPerHour="13"  route="EtoS" type="MP"/>
    <flow begin="0"    end="3600"  departPos="0" id="ES_P" departSpeed="random" vehsPerHour="252"  route="EtoS" type="P"/>
    <flow begin="0"    end="3600"  departPos="0" id="ES_NMV" departSpeed="random" vehsPerHour="70"  route="EtoS" type="NMV"/>
    <!--<flow begin="0"    end="3600"  departPos="0" id="EW_PED" departSpeed="random" vehsPerHour="17"  route="EtoW" type="PED"/>-->
    <personFlow id="ES_PED" begin="0" end="3600" personsPerHour="15" type="PED">
        <walk route="EtoS"/>
    </personFlow>

    <flow begin="0"    end="3600"  departPos="0" id="NS_LT" departSpeed="random" vehsPerHour="43"  route="NtoS" type="LT"/>
    <flow begin="0"    end="3600"  departPos="0" id="NS_MT" departSpeed="random" vehsPerHour="45"  route="NtoS" type="MT"/>
    <flow begin="0"    end="3600"  departPos="0" id="NS_T" departSpeed="random" vehsPerHour="41"  route="NtoS" type="T"/>
    <flow begin="0"    end="3600"  departPos="0" id="NS_LP" departSpeed="random" vehsPerHour="8"  route="NtoS" type="LP"/>
    <flow begin="0"    end="3600"  departPos="0" id="NS_MP" departSpeed="random" vehsPerHour="28"  route="NtoS" type="MP"/>
    <flow begin="0"    end="3600"  departPos="0" id="NS_P" departSpeed="random" vehsPerHour="451"  route="NtoS" type="P"/>
    <flow begin="0"    end="3600"  departPos="0" id="NS_NMV" departSpeed="random" vehsPerHour="359"  route="NtoS" type="NMV"/>
    <!--<flow begin="0"    end="3600"  departPos="0" id="EW_PED" departSpeed="random" vehsPerHour="17"  route="EtoW" type="PED"/>-->
    <personFlow id="NS_PED" begin="0" end="3600" personsPerHour="44" type="PED">
        <walk route="NtoS"/>
    </personFlow>

    <flow begin="0"    end="3600"  departPos="0" id="NW_LT" departSpeed="random" vehsPerHour="2"  route="NtoW" type="LT"/>
    <flow begin="0"    end="3600"  departPos="0" id="NW_MT" departSpeed="random" vehsPerHour="3"  route="NtoW" type="MT"/>
    <flow begin="0"    end="3600"  departPos="0" id="NW_T" departSpeed="random" vehsPerHour="1"  route="NtoW" type="T"/>
    <flow begin="0"    end="3600"  departPos="0" id="NW_LP" departSpeed="random" vehsPerHour="14"  route="NtoW" type="LP"/>
    <flow begin="0"    end="3600"  departPos="0" id="NW_MP" departSpeed="random" vehsPerHour="2"  route="NtoW" type="MP"/>
    <flow begin="0"    end="3600"  departPos="0" id="NW_P" departSpeed="random" vehsPerHour="136"  route="NtoW" type="P"/>
    <flow begin="0"    end="3600"  departPos="0" id="NW_NMV" departSpeed="random" vehsPerHour="37"  route="NtoW" type="NMV"/>
    <!--<flow begin="0"    end="3600"  departPos="0" id="EW_PED" departSpeed="random" vehsPerHour="17"  route="EtoW" type="PED"/>-->
    <personFlow id="NW_PED" begin="0" end="3600" personsPerHour="27" type="PED">
        <walk route="NtoW"/>
    </personFlow>

    <flow begin="0"    end="3600"  departPos="0" id="NE_LT" departSpeed="random" vehsPerHour="12"  route="NtoE" type="LT"/>
    <flow begin="0"    end="3600"  departPos="0" id="NE_MT" departSpeed="random" vehsPerHour="20"  route="NtoE" type="MT"/>
    <flow begin="0"    end="3600"  departPos="0" id="NE_T" departSpeed="random" vehsPerHour="34"  route="NtoE" type="T"/>
    <flow begin="0"    end="3600"  departPos="0" id="NE_LP" departSpeed="random" vehsPerHour="4"  route="NtoE" type="LP"/>
    <flow begin="0"    end="3600"  departPos="0" id="NE_MP" departSpeed="random" vehsPerHour="30"  route="NtoE" type="MP"/>
    <flow begin="0"    end="3600"  departPos="0" id="NE_P" departSpeed="random" vehsPerHour="234"  route="NtoE" type="P"/>
    <flow begin="0"    end="3600"  departPos="0" id="NE_NMV" departSpeed="random" vehsPerHour="47"  route="NtoE" type="NMV"/>
    <!--<flow begin="0"    end="3600"  departPos="0" id="EW_PED" departSpeed="random" vehsPerHour="17"  route="EtoW" type="PED"/>-->
    <personFlow id="NE_PED" begin="0" end="3600" personsPerHour="19" type="PED">
        <walk route="NtoE"/>
    </personFlow>

    <flow begin="0"    end="3600"  departPos="0" id="SN_LT" departSpeed="random" vehsPerHour="37"  route="StoN" type="LT"/>
    <flow begin="0"    end="3600"  departPos="0" id="SN_MT" departSpeed="random" vehsPerHour="40"  route="StoN" type="MT"/>
    <flow begin="0"    end="3600"  departPos="0" id="SN_T" departSpeed="random" vehsPerHour="43"  route="StoN" type="T"/>
    <flow begin="0"    end="3600"  departPos="0" id="SN_LP" departSpeed="random" vehsPerHour="1"  route="StoN" type="LP"/>
    <flow begin="0"    end="3600"  departPos="0" id="SN_MP" departSpeed="random" vehsPerHour="42"  route="StoN" type="MP"/>
    <flow begin="0"    end="3600"  departPos="0" id="SN_P" departSpeed="random" vehsPerHour="197"  route="StoN" type="P"/>
    <flow begin="0"    end="3600"  departPos="0" id="SN_NMV" departSpeed="random" vehsPerHour="97"  route="StoN" type="NMV"/>
    <!--<flow begin="0"    end="3600"  departPos="0" id="EW_PED" departSpeed="random" vehsPerHour="17"  route="EtoW" type="PED"/>-->
    <personFlow id="SN_PED" begin="0" end="3600" personsPerHour="39" type="PED">
        <walk route="StoN"/>
    </personFlow>
    
    <flow begin="0"    end="3600"  departPos="0" id="SE_LT" departSpeed="random" vehsPerHour="4"  route="StoE" type="LT"/>
    <flow begin="0"    end="3600"  departPos="0" id="SE_MT" departSpeed="random" vehsPerHour="10"  route="StoE" type="MT"/>
    <flow begin="0"    end="3600"  departPos="0" id="SE_T" departSpeed="random" vehsPerHour="5"  route="StoE" type="T"/>
    <flow begin="0"    end="3600"  departPos="0" id="SE_LP" departSpeed="random" vehsPerHour="1"  route="StoE" type="LP"/>
    <flow begin="0"    end="3600"  departPos="0" id="SE_MP" departSpeed="random" vehsPerHour="9"  route="StoE" type="MP"/>
    <flow begin="0"    end="3600"  departPos="0" id="SE_P" departSpeed="random" vehsPerHour="58"  route="StoE" type="P"/>
    <flow begin="0"    end="3600"  departPos="0" id="SE_NMV" departSpeed="random" vehsPerHour="33"  route="StoE" type="NMV"/>
    <!--<flow begin="0"    end="3600"  departPos="0" id="EW_PED" departSpeed="random" vehsPerHour="17"  route="EtoW" type="PED"/>-->
    <personFlow id="SE_PED" begin="0" end="3600" personsPerHour="15" type="PED">
        <walk route="StoE"/>
    </personFlow>

    <flow begin="0"    end="3600"  departPos="0" id="SW_LT" departSpeed="random" vehsPerHour="2"  route="StoW" type="LT"/>
    <flow begin="0"    end="3600"  departPos="0" id="SW_MT" departSpeed="random" vehsPerHour="1"  route="StoW" type="MT"/>
    <flow begin="0"    end="3600"  departPos="0" id="SW_T" departSpeed="random" vehsPerHour="1"  route="StoW" type="T"/>
    <flow begin="0"    end="3600"  departPos="0" id="SW_LP" departSpeed="random" vehsPerHour="2"  route="StoW" type="LP"/>
    <flow begin="0"    end="3600"  departPos="0" id="SW_MP" departSpeed="random" vehsPerHour="2"  route="StoW" type="MP"/>
    <flow begin="0"    end="3600"  departPos="0" id="SW_P" departSpeed="random" vehsPerHour="35"  route="StoW" type="P"/>
    <flow begin="0"    end="3600"  departPos="0" id="SW_NMV" departSpeed="random" vehsPerHour="46"  route="StoW" type="NMV"/>
    <!--<flow begin="0"    end="3600"  departPos="0" id="EW_PED" departSpeed="random" vehsPerHour="17"  route="EtoW" type="PED"/>-->
    <personFlow id="SW_PED" begin="0" end="3600" personsPerHour="22" type="PED">
        <walk route="StoW"/>
    </personFlow>

</routes>